# This file was generated by ISODISTORT, version 6.12.2
# Harold T. Stokes, Branton J. Campbell, David Tanner, Dorian M. Hatch
# Brigham Young University, Provo, Utah, USA
#
# Space Group:  47 Pmmm       D2h-1
# Default space-group preferences: monoclinic axes a(b)c, monoclinic cell choice 1, orthorhombic axes abc, origin choice 2, hexagonal axes, SSG standard setting
# Lattice parameters: a= 3.82030, b= 3.88548, c= 11.68350, alpha= 90.00000, beta= 90.00000, gamma= 90.00000
# Pr1 1h (1/2,1/2,1/2)
# Ba1 2t (1/2,1/2,z), z= 0.18393
# Cu1 1a (0,0,0)
# Cu2 2q (0,0,z), z= 0.35501
# O1 1e (0,1/2,0), occ= 0.91000
# O2 2s (1/2,0,z), z= 0.37819
# O3 2r (0,1/2,z), z= 0.37693
# O4 2q (0,0,z), z= 0.15840
# Include strain, displacive ALL distortions
# k point: GP, k0 (a,b,g), a=1/3, b=1/3, g=1/3
# IR: GP1, k0t1
# P5 (a,0;a,0;a,0;a,0)  47 Pmmm, basis={(-3,0,0),(0,0,3),(0,3,0)}, origin=(0,0,0), s=27, i=27, k-active= (1/3,1/3,1/3),(-1/3,1/3,1/3),(1/3,-1/3,1/3),(1/3,1/3,-1/3)
# Order parameter values:
#  Pmmm[1/3,1/3,1/3]GP1(a,0;a,0;a,0;a,0) 47 Pmmm s=27 i=27
#     [Pr1:h:dsp]B3u(a):  0.00000
#     [Pr1:h:dsp]B1u(a):  0.00000
#     [Pr1:h:dsp]B2u(a):  0.00000
#     [Ba1:t:dsp]A1_1(a):  0.00000
#     [Ba1:t:dsp]A1_2(a):  0.00000
#     [Ba1:t:dsp]B2_1(a):  0.00000
#     [Ba1:t:dsp]B2_2(a):  0.00000
#     [Ba1:t:dsp]B1_1(a):  0.00000
#     [Ba1:t:dsp]B1_2(a):  0.00000
#     [Cu1:a:dsp]B3u(a):  0.00000
#     [Cu1:a:dsp]B1u(a):  0.00000
#     [Cu1:a:dsp]B2u(a):  0.00000
#     [Cu2:q:dsp]A1_1(a):  0.00000
#     [Cu2:q:dsp]A1_2(a):  0.00000
#     [Cu2:q:dsp]B2_1(a):  0.00000
#     [Cu2:q:dsp]B2_2(a):  0.00000
#     [Cu2:q:dsp]B1_1(a):  0.00000
#     [Cu2:q:dsp]B1_2(a):  0.00000
#     [O1:e:dsp]B3u(a):  0.00000
#     [O1:e:dsp]B1u(a):  0.00000
#     [O1:e:dsp]B2u(a):  0.00000
#     [O2:s:dsp]A1_1(a):  0.00000
#     [O2:s:dsp]A1_2(a):  0.00000
#     [O2:s:dsp]B2_1(a):  0.00000
#     [O2:s:dsp]B2_2(a):  0.00000
#     [O2:s:dsp]B1_1(a):  0.00000
#     [O2:s:dsp]B1_2(a):  0.00000
#     [O3:r:dsp]A1_1(a):  0.00000
#     [O3:r:dsp]A1_2(a):  0.00000
#     [O3:r:dsp]B2_1(a):  0.00000
#     [O3:r:dsp]B2_2(a):  0.00000
#     [O3:r:dsp]B1_1(a):  0.00000
#     [O3:r:dsp]B1_2(a):  0.00000
#     [O4:q:dsp]A1_1(a):  0.00000
#     [O4:q:dsp]A1_2(a):  0.00000
#     [O4:q:dsp]B2_1(a):  0.00000
#     [O4:q:dsp]B2_2(a):  0.00000
#     [O4:q:dsp]B1_1(a):  0.00000
#     [O4:q:dsp]B1_2(a):  0.00000
#  Pmmm[0,0,0]GM1+(a) 47 Pmmm s=1 i=1
#     [Ba1:t:dsp]A1(a):  0.00000
#     [Cu2:q:dsp]A1(a):  0.00000
#     [O2:s:dsp]A1(a):  0.00000
#     [O3:r:dsp]A1(a):  0.00000
#     [O4:q:dsp]A1(a):  0.00000
#     strain_1(a):  0.00000
#     strain_2(a):  0.00000
#     strain_3(a):  0.00000
#  Pmmm[0,1/3,0]DT1(a,0) 47 Pmmm s=3 i=3
#     [Pr1:h:dsp]B2u(a):  0.00000
#     [Ba1:t:dsp]A1(a):  0.00000
#     [Ba1:t:dsp]B2(a):  0.00000
#     [Cu1:a:dsp]B2u(a):  0.00000
#     [Cu2:q:dsp]A1(a):  0.00000
#     [Cu2:q:dsp]B2(a):  0.00000
#     [O1:e:dsp]B2u(a):  0.00000
#     [O2:s:dsp]A1(a):  0.00000
#     [O2:s:dsp]B2(a):  0.00000
#     [O3:r:dsp]A1(a):  0.00000
#     [O3:r:dsp]B2(a):  0.00000
#     [O4:q:dsp]A1(a):  0.00000
#     [O4:q:dsp]B2(a):  0.00000
#  Pmmm[0,0,1/3]LD1(a,0) 47 Pmmm s=3 i=3
#     [Pr1:h:dsp]B1u(a):  0.00000
#     [Ba1:t:dsp]A1_1(a):  0.00000
#     [Ba1:t:dsp]A1_2(a):  0.00000
#     [Cu1:a:dsp]B1u(a):  0.00000
#     [Cu2:q:dsp]A1_1(a):  0.00000
#     [Cu2:q:dsp]A1_2(a):  0.00000
#     [O1:e:dsp]B1u(a):  0.00000
#     [O2:s:dsp]A1_1(a):  0.00000
#     [O2:s:dsp]A1_2(a):  0.00000
#     [O3:r:dsp]A1_1(a):  0.00000
#     [O3:r:dsp]A1_2(a):  0.00000
#     [O4:q:dsp]A1_1(a):  0.00000
#     [O4:q:dsp]A1_2(a):  0.00000
#  Pmmm[1/3,0,0]SM1(a,0) 47 Pmmm s=3 i=3
#     [Pr1:h:dsp]B3u(a):  0.00000
#     [Ba1:t:dsp]A1(a):  0.00000
#     [Ba1:t:dsp]B1(a):  0.00000
#     [Cu1:a:dsp]B3u(a):  0.00000
#     [Cu2:q:dsp]A1(a):  0.00000
#     [Cu2:q:dsp]B1(a):  0.00000
#     [O1:e:dsp]B3u(a):  0.00000
#     [O2:s:dsp]A1(a):  0.00000
#     [O2:s:dsp]B1(a):  0.00000
#     [O3:r:dsp]A1(a):  0.00000
#     [O3:r:dsp]B1(a):  0.00000
#     [O4:q:dsp]A1(a):  0.00000
#     [O4:q:dsp]B1(a):  0.00000
#  Pmmm[0,1/3,1/3]K1(a,0;a,0) 47 Pmmm s=9 i=9
#     [Pr1:h:dsp]B1u(a):  0.00000
#     [Pr1:h:dsp]B2u(a):  0.00000
#     [Ba1:t:dsp]A1_1(a):  0.00000
#     [Ba1:t:dsp]A1_2(a):  0.00000
#     [Ba1:t:dsp]B2_1(a):  0.00000
#     [Ba1:t:dsp]B2_2(a):  0.00000
#     [Cu1:a:dsp]B1u(a):  0.00000
#     [Cu1:a:dsp]B2u(a):  0.00000
#     [Cu2:q:dsp]A1_1(a):  0.00000
#     [Cu2:q:dsp]A1_2(a):  0.00000
#     [Cu2:q:dsp]B2_1(a):  0.00000
#     [Cu2:q:dsp]B2_2(a):  0.00000
#     [O1:e:dsp]B1u(a):  0.00000
#     [O1:e:dsp]B2u(a):  0.00000
#     [O2:s:dsp]A1_1(a):  0.00000
#     [O2:s:dsp]A1_2(a):  0.00000
#     [O2:s:dsp]B2_1(a):  0.00000
#     [O2:s:dsp]B2_2(a):  0.00000
#     [O3:r:dsp]A1_1(a):  0.00000
#     [O3:r:dsp]A1_2(a):  0.00000
#     [O3:r:dsp]B2_1(a):  0.00000
#     [O3:r:dsp]B2_2(a):  0.00000
#     [O4:q:dsp]A1_1(a):  0.00000
#     [O4:q:dsp]A1_2(a):  0.00000
#     [O4:q:dsp]B2_1(a):  0.00000
#     [O4:q:dsp]B2_2(a):  0.00000
#  Pmmm[1/3,0,1/3]M1(a,0;a,0) 47 Pmmm s=9 i=9
#     [Pr1:h:dsp]B3u(a):  0.00000
#     [Pr1:h:dsp]B1u(a):  0.00000
#     [Ba1:t:dsp]A1_1(a):  0.00000
#     [Ba1:t:dsp]A1_2(a):  0.00000
#     [Ba1:t:dsp]B1_1(a):  0.00000
#     [Ba1:t:dsp]B1_2(a):  0.00000
#     [Cu1:a:dsp]B3u(a):  0.00000
#     [Cu1:a:dsp]B1u(a):  0.00000
#     [Cu2:q:dsp]A1_1(a):  0.00000
#     [Cu2:q:dsp]A1_2(a):  0.00000
#     [Cu2:q:dsp]B1_1(a):  0.00000
#     [Cu2:q:dsp]B1_2(a):  0.00000
#     [O1:e:dsp]B3u(a):  0.00000
#     [O1:e:dsp]B1u(a):  0.00000
#     [O2:s:dsp]A1_1(a):  0.00000
#     [O2:s:dsp]A1_2(a):  0.00000
#     [O2:s:dsp]B1_1(a):  0.00000
#     [O2:s:dsp]B1_2(a):  0.00000
#     [O3:r:dsp]A1_1(a):  0.00000
#     [O3:r:dsp]A1_2(a):  0.00000
#     [O3:r:dsp]B1_1(a):  0.00000
#     [O3:r:dsp]B1_2(a):  0.00000
#     [O4:q:dsp]A1_1(a):  0.00000
#     [O4:q:dsp]A1_2(a):  0.00000
#     [O4:q:dsp]B1_1(a):  0.00000
#     [O4:q:dsp]B1_2(a):  0.00000
#  Pmmm[1/3,1/3,0]V1(a,0;a,0) 47 Pmmm s=9 i=9
#     [Pr1:h:dsp]B3u(a):  0.00000
#     [Pr1:h:dsp]B2u(a):  0.00000
#     [Ba1:t:dsp]A1(a):  0.00000
#     [Ba1:t:dsp]B2(a):  0.00000
#     [Ba1:t:dsp]B1(a):  0.00000
#     [Cu1:a:dsp]B3u(a):  0.00000
#     [Cu1:a:dsp]B2u(a):  0.00000
#     [Cu2:q:dsp]A1(a):  0.00000
#     [Cu2:q:dsp]B2(a):  0.00000
#     [Cu2:q:dsp]B1(a):  0.00000
#     [O1:e:dsp]B3u(a):  0.00000
#     [O1:e:dsp]B2u(a):  0.00000
#     [O2:s:dsp]A1(a):  0.00000
#     [O2:s:dsp]B2(a):  0.00000
#     [O2:s:dsp]B1(a):  0.00000
#     [O3:r:dsp]A1(a):  0.00000
#     [O3:r:dsp]B2(a):  0.00000
#     [O3:r:dsp]B1(a):  0.00000
#     [O4:q:dsp]A1(a):  0.00000
#     [O4:q:dsp]B2(a):  0.00000
#     [O4:q:dsp]B1(a):  0.00000

data_isodistort-output

_cell_length_a     11.46090
_cell_length_b     35.05050
_cell_length_c     11.65644
_cell_angle_alpha  90.00000
_cell_angle_beta   90.00000
_cell_angle_gamma  90.00000
_cell_volume       4682.51172

_symmetry_space_group_name_H-M "P 2/m 2/m 2/m"
_symmetry_Int_Tables_number 47
_space_group.reference_setting '047:-P 2 2'
_space_group.transform_Pp_abc a,b,c;0,0,0

loop_
_space_group_symop_id
_space_group_symop_operation_xyz
1 x,y,z
2 x,-y,-z
3 -x,y,-z
4 -x,-y,z
5 -x,-y,-z
6 -x,y,z
7 x,-y,z
8 x,y,-z

loop_
_atom_type_symbol
Pr    
Ba    
Cu    
O     

loop_
_atom_site_label
_atom_site_type_symbol
_atom_site_symmetry_multiplicity
_atom_site_Wyckoff_symbol
_atom_site_fract_x
_atom_site_fract_y
_atom_site_fract_z
_atom_site_occupancy
_atom_site_fract_symmform
Pr1_1  Pr   8 alpha  0.83333  0.16667  0.16667  1.00000 Dx,Dy,Dz 
Pr1_2  Pr   4 z      0.83333  0.16667  0.50000  1.00000 Dx,Dy,0  
Pr1_3  Pr   4 x      0.83333  0.50000  0.16667  1.00000 Dx,0,Dz  
Pr1_4  Pr   2 l      0.83333  0.50000  0.50000  1.00000 Dx,0,0   
Pr1_5  Pr   4 v      0.50000  0.16667  0.16667  1.00000 0,Dy,Dz  
Pr1_6  Pr   2 p      0.50000  0.16667  0.50000  1.00000 0,Dy,0   
Pr1_7  Pr   2 t      0.50000  0.50000  0.16667  1.00000 0,0,Dz   
Pr1_8  Pr   1 h      0.50000  0.50000  0.50000  1.00000 0,0,0    
Ba1_1  Ba   8 alpha  0.83333  0.06131  0.16667  1.00000 Dx,Dy,Dz 
Ba1_2  Ba   4 z      0.83333  0.06131  0.50000  1.00000 Dx,Dy,0  
Ba1_3  Ba   8 alpha  0.83333  0.39464  0.16667  1.00000 Dx,Dy,Dz 
Ba1_4  Ba   4 z      0.83333  0.39464  0.50000  1.00000 Dx,Dy,0  
Ba1_5  Ba   8 alpha  0.83333  0.72798  0.16667  1.00000 Dx,Dy,Dz 
Ba1_6  Ba   4 z      0.83333  0.72798  0.50000  1.00000 Dx,Dy,0  
Ba1_7  Ba   4 v      0.50000  0.06131  0.16667  1.00000 0,Dy,Dz  
Ba1_8  Ba   2 p      0.50000  0.06131  0.50000  1.00000 0,Dy,0   
Ba1_9  Ba   4 v      0.50000  0.39464  0.16667  1.00000 0,Dy,Dz  
Ba1_10 Ba   2 p      0.50000  0.39464  0.50000  1.00000 0,Dy,0   
Ba1_11 Ba   4 v      0.50000  0.72798  0.16667  1.00000 0,Dy,Dz  
Ba1_12 Ba   2 p      0.50000  0.72798  0.50000  1.00000 0,Dy,0   
Cu1_1  Cu   1 a      0.00000  0.00000  0.00000  1.00000 0,0,0    
Cu1_2  Cu   2 q      0.00000  0.00000  0.33333  1.00000 0,0,Dz   
Cu1_3  Cu   2 m      0.00000  0.33333  0.00000  1.00000 0,Dy,0   
Cu1_4  Cu   4 u      0.00000  0.33333  0.33333  1.00000 0,Dy,Dz  
Cu1_5  Cu   2 i      0.33333  0.00000  0.00000  1.00000 Dx,0,0   
Cu1_6  Cu   4 w      0.33333  0.00000  0.33333  1.00000 Dx,0,Dz  
Cu1_7  Cu   4 y      0.33333  0.33333  0.00000  1.00000 Dx,Dy,0  
Cu1_8  Cu   8 alpha  0.33333  0.33333  0.33333  1.00000 Dx,Dy,Dz 
Cu2_1  Cu   2 m      0.00000  0.11834  0.00000  1.00000 0,Dy,0   
Cu2_2  Cu   4 u      0.00000  0.11834  0.33333  1.00000 0,Dy,Dz  
Cu2_3  Cu   2 m      0.00000  0.45167  0.00000  1.00000 0,Dy,0   
Cu2_4  Cu   4 u      0.00000  0.45167  0.33333  1.00000 0,Dy,Dz  
Cu2_5  Cu   2 m      0.00000  0.78500  0.00000  1.00000 0,Dy,0   
Cu2_6  Cu   4 u      0.00000  0.78500  0.33333  1.00000 0,Dy,Dz  
Cu2_7  Cu   4 y      0.33333  0.11834  0.00000  1.00000 Dx,Dy,0  
Cu2_8  Cu   8 alpha  0.33333  0.11834  0.33333  1.00000 Dx,Dy,Dz 
Cu2_9  Cu   4 y      0.33333  0.45167  0.00000  1.00000 Dx,Dy,0  
Cu2_10 Cu   8 alpha  0.33333  0.45167  0.33333  1.00000 Dx,Dy,Dz 
Cu2_11 Cu   4 y      0.33333  0.78500  0.00000  1.00000 Dx,Dy,0  
Cu2_12 Cu   8 alpha  0.33333  0.78500  0.33333  1.00000 Dx,Dy,Dz 
O1_1   O    2 q      0.00000  0.00000  0.16667  0.91000 0,0,Dz   
O1_2   O    1 c      0.00000  0.00000  0.50000  0.91000 0,0,0    
O1_3   O    4 u      0.00000  0.33333  0.16667  0.91000 0,Dy,Dz  
O1_4   O    2 n      0.00000  0.33333  0.50000  0.91000 0,Dy,0   
O1_5   O    4 w      0.33333  0.00000  0.16667  0.91000 Dx,0,Dz  
O1_6   O    2 j      0.33333  0.00000  0.50000  0.91000 Dx,0,0   
O1_7   O    8 alpha  0.33333  0.33333  0.16667  0.91000 Dx,Dy,Dz 
O1_8   O    4 z      0.33333  0.33333  0.50000  0.91000 Dx,Dy,0  
O2_1   O    4 y      0.83333  0.12606  0.00000  1.00000 Dx,Dy,0  
O2_2   O    8 alpha  0.83333  0.12606  0.33333  1.00000 Dx,Dy,Dz 
O2_3   O    4 y      0.83333  0.45940  0.00000  1.00000 Dx,Dy,0  
O2_4   O    8 alpha  0.83333  0.45940  0.33333  1.00000 Dx,Dy,Dz 
O2_5   O    4 y      0.83333  0.79273  0.00000  1.00000 Dx,Dy,0  
O2_6   O    8 alpha  0.83333  0.79273  0.33333  1.00000 Dx,Dy,Dz 
O2_7   O    2 o      0.50000  0.12606  0.00000  1.00000 0,Dy,0   
O2_8   O    4 v      0.50000  0.12606  0.33333  1.00000 0,Dy,Dz  
O2_9   O    2 o      0.50000  0.45940  0.00000  1.00000 0,Dy,0   
O2_10  O    4 v      0.50000  0.45940  0.33333  1.00000 0,Dy,Dz  
O2_11  O    2 o      0.50000  0.79273  0.00000  1.00000 0,Dy,0   
O2_12  O    4 v      0.50000  0.79273  0.33333  1.00000 0,Dy,Dz  
O3_1   O    4 u      0.00000  0.12564  0.16667  1.00000 0,Dy,Dz  
O3_2   O    2 n      0.00000  0.12564  0.50000  1.00000 0,Dy,0   
O3_3   O    4 u      0.00000  0.45898  0.16667  1.00000 0,Dy,Dz  
O3_4   O    2 n      0.00000  0.45898  0.50000  1.00000 0,Dy,0   
O3_5   O    4 u      0.00000  0.79231  0.16667  1.00000 0,Dy,Dz  
O3_6   O    2 n      0.00000  0.79231  0.50000  1.00000 0,Dy,0   
O3_7   O    8 alpha  0.33333  0.12564  0.16667  1.00000 Dx,Dy,Dz 
O3_8   O    4 z      0.33333  0.12564  0.50000  1.00000 Dx,Dy,0  
O3_9   O    8 alpha  0.33333  0.45898  0.16667  1.00000 Dx,Dy,Dz 
O3_10  O    4 z      0.33333  0.45898  0.50000  1.00000 Dx,Dy,0  
O3_11  O    8 alpha  0.33333  0.79231  0.16667  1.00000 Dx,Dy,Dz 
O3_12  O    4 z      0.33333  0.79231  0.50000  1.00000 Dx,Dy,0  
O4_1   O    2 m      0.00000  0.05280  0.00000  1.00000 0,Dy,0   
O4_2   O    4 u      0.00000  0.05280  0.33333  1.00000 0,Dy,Dz  
O4_3   O    2 m      0.00000  0.38613  0.00000  1.00000 0,Dy,0   
O4_4   O    4 u      0.00000  0.38613  0.33333  1.00000 0,Dy,Dz  
O4_5   O    2 m      0.00000  0.71947  0.00000  1.00000 0,Dy,0   
O4_6   O    4 u      0.00000  0.71947  0.33333  1.00000 0,Dy,Dz  
O4_7   O    4 y      0.33333  0.05280  0.00000  1.00000 Dx,Dy,0  
O4_8   O    8 alpha  0.33333  0.05280  0.33333  1.00000 Dx,Dy,Dz 
O4_9   O    4 y      0.33333  0.38613  0.00000  1.00000 Dx,Dy,0  
O4_10  O    8 alpha  0.33333  0.38613  0.33333  1.00000 Dx,Dy,Dz 
O4_11  O    4 y      0.33333  0.71947  0.00000  1.00000 Dx,Dy,0  
O4_12  O    8 alpha  0.33333  0.71947  0.33333  1.00000 Dx,Dy,Dz 

_iso_displacivemode_number  156

loop_
_iso_displacivemode_ID
_iso_displacivemode_label
_iso_displacivemode_value
   1 Pmmm[1/3,1/3,1/3]GP1(a,0;a,0;a,0;a,0)[Pr1:h:dsp]B3u(a)  0.00000
   2 Pmmm[1/3,1/3,1/3]GP1(a,0;a,0;a,0;a,0)[Pr1:h:dsp]B1u(a)  0.00000
   3 Pmmm[1/3,1/3,1/3]GP1(a,0;a,0;a,0;a,0)[Pr1:h:dsp]B2u(a)  0.00000
   4 Pmmm[0,1/3,0]DT1(a,0)[Pr1:h:dsp]B2u(a)  0.00000
   5 Pmmm[0,0,1/3]LD1(a,0)[Pr1:h:dsp]B1u(a)  0.00000
   6 Pmmm[1/3,0,0]SM1(a,0)[Pr1:h:dsp]B3u(a)  0.00000
   7 Pmmm[0,1/3,1/3]K1(a,0;a,0)[Pr1:h:dsp]B1u(a)  0.00000
   8 Pmmm[0,1/3,1/3]K1(a,0;a,0)[Pr1:h:dsp]B2u(a)  0.00000
   9 Pmmm[1/3,0,1/3]M1(a,0;a,0)[Pr1:h:dsp]B3u(a)  0.00000
  10 Pmmm[1/3,0,1/3]M1(a,0;a,0)[Pr1:h:dsp]B1u(a)  0.00000
  11 Pmmm[1/3,1/3,0]V1(a,0;a,0)[Pr1:h:dsp]B3u(a)  0.00000
  12 Pmmm[1/3,1/3,0]V1(a,0;a,0)[Pr1:h:dsp]B2u(a)  0.00000
  13 Pmmm[1/3,1/3,1/3]GP1(a,0;a,0;a,0;a,0)[Ba1:t:dsp]A1_1(a)  0.00000
  14 Pmmm[1/3,1/3,1/3]GP1(a,0;a,0;a,0;a,0)[Ba1:t:dsp]A1_2(a)  0.00000
  15 Pmmm[1/3,1/3,1/3]GP1(a,0;a,0;a,0;a,0)[Ba1:t:dsp]B2_1(a)  0.00000
  16 Pmmm[1/3,1/3,1/3]GP1(a,0;a,0;a,0;a,0)[Ba1:t:dsp]B2_2(a)  0.00000
  17 Pmmm[1/3,1/3,1/3]GP1(a,0;a,0;a,0;a,0)[Ba1:t:dsp]B1_1(a)  0.00000
  18 Pmmm[1/3,1/3,1/3]GP1(a,0;a,0;a,0;a,0)[Ba1:t:dsp]B1_2(a)  0.00000
  19 Pmmm[0,0,0]GM1+(a)[Ba1:t:dsp]A1(a)  0.00000
  20 Pmmm[0,1/3,0]DT1(a,0)[Ba1:t:dsp]A1(a)  0.00000
  21 Pmmm[0,1/3,0]DT1(a,0)[Ba1:t:dsp]B2(a)  0.00000
  22 Pmmm[0,0,1/3]LD1(a,0)[Ba1:t:dsp]A1_1(a)  0.00000
  23 Pmmm[0,0,1/3]LD1(a,0)[Ba1:t:dsp]A1_2(a)  0.00000
  24 Pmmm[1/3,0,0]SM1(a,0)[Ba1:t:dsp]A1(a)  0.00000
  25 Pmmm[1/3,0,0]SM1(a,0)[Ba1:t:dsp]B1(a)  0.00000
  26 Pmmm[0,1/3,1/3]K1(a,0;a,0)[Ba1:t:dsp]A1_1(a)  0.00000
  27 Pmmm[0,1/3,1/3]K1(a,0;a,0)[Ba1:t:dsp]A1_2(a)  0.00000
  28 Pmmm[0,1/3,1/3]K1(a,0;a,0)[Ba1:t:dsp]B2_1(a)  0.00000
  29 Pmmm[0,1/3,1/3]K1(a,0;a,0)[Ba1:t:dsp]B2_2(a)  0.00000
  30 Pmmm[1/3,0,1/3]M1(a,0;a,0)[Ba1:t:dsp]A1_1(a)  0.00000
  31 Pmmm[1/3,0,1/3]M1(a,0;a,0)[Ba1:t:dsp]A1_2(a)  0.00000
  32 Pmmm[1/3,0,1/3]M1(a,0;a,0)[Ba1:t:dsp]B1_1(a)  0.00000
  33 Pmmm[1/3,0,1/3]M1(a,0;a,0)[Ba1:t:dsp]B1_2(a)  0.00000
  34 Pmmm[1/3,1/3,0]V1(a,0;a,0)[Ba1:t:dsp]A1(a)  0.00000
  35 Pmmm[1/3,1/3,0]V1(a,0;a,0)[Ba1:t:dsp]B2(a)  0.00000
  36 Pmmm[1/3,1/3,0]V1(a,0;a,0)[Ba1:t:dsp]B1(a)  0.00000
  37 Pmmm[1/3,1/3,1/3]GP1(a,0;a,0;a,0;a,0)[Cu1:a:dsp]B3u(a)  0.00000
  38 Pmmm[1/3,1/3,1/3]GP1(a,0;a,0;a,0;a,0)[Cu1:a:dsp]B1u(a)  0.00000
  39 Pmmm[1/3,1/3,1/3]GP1(a,0;a,0;a,0;a,0)[Cu1:a:dsp]B2u(a)  0.00000
  40 Pmmm[0,1/3,0]DT1(a,0)[Cu1:a:dsp]B2u(a)  0.00000
  41 Pmmm[0,0,1/3]LD1(a,0)[Cu1:a:dsp]B1u(a)  0.00000
  42 Pmmm[1/3,0,0]SM1(a,0)[Cu1:a:dsp]B3u(a)  0.00000
  43 Pmmm[0,1/3,1/3]K1(a,0;a,0)[Cu1:a:dsp]B1u(a)  0.00000
  44 Pmmm[0,1/3,1/3]K1(a,0;a,0)[Cu1:a:dsp]B2u(a)  0.00000
  45 Pmmm[1/3,0,1/3]M1(a,0;a,0)[Cu1:a:dsp]B3u(a)  0.00000
  46 Pmmm[1/3,0,1/3]M1(a,0;a,0)[Cu1:a:dsp]B1u(a)  0.00000
  47 Pmmm[1/3,1/3,0]V1(a,0;a,0)[Cu1:a:dsp]B3u(a)  0.00000
  48 Pmmm[1/3,1/3,0]V1(a,0;a,0)[Cu1:a:dsp]B2u(a)  0.00000
  49 Pmmm[1/3,1/3,1/3]GP1(a,0;a,0;a,0;a,0)[Cu2:q:dsp]A1_1(a)  0.00000
  50 Pmmm[1/3,1/3,1/3]GP1(a,0;a,0;a,0;a,0)[Cu2:q:dsp]A1_2(a)  0.00000
  51 Pmmm[1/3,1/3,1/3]GP1(a,0;a,0;a,0;a,0)[Cu2:q:dsp]B2_1(a)  0.00000
  52 Pmmm[1/3,1/3,1/3]GP1(a,0;a,0;a,0;a,0)[Cu2:q:dsp]B2_2(a)  0.00000
  53 Pmmm[1/3,1/3,1/3]GP1(a,0;a,0;a,0;a,0)[Cu2:q:dsp]B1_1(a)  0.00000
  54 Pmmm[1/3,1/3,1/3]GP1(a,0;a,0;a,0;a,0)[Cu2:q:dsp]B1_2(a)  0.00000
  55 Pmmm[0,0,0]GM1+(a)[Cu2:q:dsp]A1(a)  0.00000
  56 Pmmm[0,1/3,0]DT1(a,0)[Cu2:q:dsp]A1(a)  0.00000
  57 Pmmm[0,1/3,0]DT1(a,0)[Cu2:q:dsp]B2(a)  0.00000
  58 Pmmm[0,0,1/3]LD1(a,0)[Cu2:q:dsp]A1_1(a)  0.00000
  59 Pmmm[0,0,1/3]LD1(a,0)[Cu2:q:dsp]A1_2(a)  0.00000
  60 Pmmm[1/3,0,0]SM1(a,0)[Cu2:q:dsp]A1(a)  0.00000
  61 Pmmm[1/3,0,0]SM1(a,0)[Cu2:q:dsp]B1(a)  0.00000
  62 Pmmm[0,1/3,1/3]K1(a,0;a,0)[Cu2:q:dsp]A1_1(a)  0.00000
  63 Pmmm[0,1/3,1/3]K1(a,0;a,0)[Cu2:q:dsp]A1_2(a)  0.00000
  64 Pmmm[0,1/3,1/3]K1(a,0;a,0)[Cu2:q:dsp]B2_1(a)  0.00000
  65 Pmmm[0,1/3,1/3]K1(a,0;a,0)[Cu2:q:dsp]B2_2(a)  0.00000
  66 Pmmm[1/3,0,1/3]M1(a,0;a,0)[Cu2:q:dsp]A1_1(a)  0.00000
  67 Pmmm[1/3,0,1/3]M1(a,0;a,0)[Cu2:q:dsp]A1_2(a)  0.00000
  68 Pmmm[1/3,0,1/3]M1(a,0;a,0)[Cu2:q:dsp]B1_1(a)  0.00000
  69 Pmmm[1/3,0,1/3]M1(a,0;a,0)[Cu2:q:dsp]B1_2(a)  0.00000
  70 Pmmm[1/3,1/3,0]V1(a,0;a,0)[Cu2:q:dsp]A1(a)  0.00000
  71 Pmmm[1/3,1/3,0]V1(a,0;a,0)[Cu2:q:dsp]B2(a)  0.00000
  72 Pmmm[1/3,1/3,0]V1(a,0;a,0)[Cu2:q:dsp]B1(a)  0.00000
  73 Pmmm[1/3,1/3,1/3]GP1(a,0;a,0;a,0;a,0)[O1:e:dsp]B3u(a)  0.00000
  74 Pmmm[1/3,1/3,1/3]GP1(a,0;a,0;a,0;a,0)[O1:e:dsp]B1u(a)  0.00000
  75 Pmmm[1/3,1/3,1/3]GP1(a,0;a,0;a,0;a,0)[O1:e:dsp]B2u(a)  0.00000
  76 Pmmm[0,1/3,0]DT1(a,0)[O1:e:dsp]B2u(a)  0.00000
  77 Pmmm[0,0,1/3]LD1(a,0)[O1:e:dsp]B1u(a)  0.00000
  78 Pmmm[1/3,0,0]SM1(a,0)[O1:e:dsp]B3u(a)  0.00000
  79 Pmmm[0,1/3,1/3]K1(a,0;a,0)[O1:e:dsp]B1u(a)  0.00000
  80 Pmmm[0,1/3,1/3]K1(a,0;a,0)[O1:e:dsp]B2u(a)  0.00000
  81 Pmmm[1/3,0,1/3]M1(a,0;a,0)[O1:e:dsp]B3u(a)  0.00000
  82 Pmmm[1/3,0,1/3]M1(a,0;a,0)[O1:e:dsp]B1u(a)  0.00000
  83 Pmmm[1/3,1/3,0]V1(a,0;a,0)[O1:e:dsp]B3u(a)  0.00000
  84 Pmmm[1/3,1/3,0]V1(a,0;a,0)[O1:e:dsp]B2u(a)  0.00000
  85 Pmmm[1/3,1/3,1/3]GP1(a,0;a,0;a,0;a,0)[O2:s:dsp]A1_1(a)  0.00000
  86 Pmmm[1/3,1/3,1/3]GP1(a,0;a,0;a,0;a,0)[O2:s:dsp]A1_2(a)  0.00000
  87 Pmmm[1/3,1/3,1/3]GP1(a,0;a,0;a,0;a,0)[O2:s:dsp]B2_1(a)  0.00000
  88 Pmmm[1/3,1/3,1/3]GP1(a,0;a,0;a,0;a,0)[O2:s:dsp]B2_2(a)  0.00000
  89 Pmmm[1/3,1/3,1/3]GP1(a,0;a,0;a,0;a,0)[O2:s:dsp]B1_1(a)  0.00000
  90 Pmmm[1/3,1/3,1/3]GP1(a,0;a,0;a,0;a,0)[O2:s:dsp]B1_2(a)  0.00000
  91 Pmmm[0,0,0]GM1+(a)[O2:s:dsp]A1(a)  0.00000
  92 Pmmm[0,1/3,0]DT1(a,0)[O2:s:dsp]A1(a)  0.00000
  93 Pmmm[0,1/3,0]DT1(a,0)[O2:s:dsp]B2(a)  0.00000
  94 Pmmm[0,0,1/3]LD1(a,0)[O2:s:dsp]A1_1(a)  0.00000
  95 Pmmm[0,0,1/3]LD1(a,0)[O2:s:dsp]A1_2(a)  0.00000
  96 Pmmm[1/3,0,0]SM1(a,0)[O2:s:dsp]A1(a)  0.00000
  97 Pmmm[1/3,0,0]SM1(a,0)[O2:s:dsp]B1(a)  0.00000
  98 Pmmm[0,1/3,1/3]K1(a,0;a,0)[O2:s:dsp]A1_1(a)  0.00000
  99 Pmmm[0,1/3,1/3]K1(a,0;a,0)[O2:s:dsp]A1_2(a)  0.00000
 100 Pmmm[0,1/3,1/3]K1(a,0;a,0)[O2:s:dsp]B2_1(a)  0.00000
 101 Pmmm[0,1/3,1/3]K1(a,0;a,0)[O2:s:dsp]B2_2(a)  0.00000
 102 Pmmm[1/3,0,1/3]M1(a,0;a,0)[O2:s:dsp]A1_1(a)  0.00000
 103 Pmmm[1/3,0,1/3]M1(a,0;a,0)[O2:s:dsp]A1_2(a)  0.00000
 104 Pmmm[1/3,0,1/3]M1(a,0;a,0)[O2:s:dsp]B1_1(a)  0.00000
 105 Pmmm[1/3,0,1/3]M1(a,0;a,0)[O2:s:dsp]B1_2(a)  0.00000
 106 Pmmm[1/3,1/3,0]V1(a,0;a,0)[O2:s:dsp]A1(a)  0.00000
 107 Pmmm[1/3,1/3,0]V1(a,0;a,0)[O2:s:dsp]B2(a)  0.00000
 108 Pmmm[1/3,1/3,0]V1(a,0;a,0)[O2:s:dsp]B1(a)  0.00000
 109 Pmmm[1/3,1/3,1/3]GP1(a,0;a,0;a,0;a,0)[O3:r:dsp]A1_1(a)  0.00000
 110 Pmmm[1/3,1/3,1/3]GP1(a,0;a,0;a,0;a,0)[O3:r:dsp]A1_2(a)  0.00000
 111 Pmmm[1/3,1/3,1/3]GP1(a,0;a,0;a,0;a,0)[O3:r:dsp]B2_1(a)  0.00000
 112 Pmmm[1/3,1/3,1/3]GP1(a,0;a,0;a,0;a,0)[O3:r:dsp]B2_2(a)  0.00000
 113 Pmmm[1/3,1/3,1/3]GP1(a,0;a,0;a,0;a,0)[O3:r:dsp]B1_1(a)  0.00000
 114 Pmmm[1/3,1/3,1/3]GP1(a,0;a,0;a,0;a,0)[O3:r:dsp]B1_2(a)  0.00000
 115 Pmmm[0,0,0]GM1+(a)[O3:r:dsp]A1(a)  0.00000
 116 Pmmm[0,1/3,0]DT1(a,0)[O3:r:dsp]A1(a)  0.00000
 117 Pmmm[0,1/3,0]DT1(a,0)[O3:r:dsp]B2(a)  0.00000
 118 Pmmm[0,0,1/3]LD1(a,0)[O3:r:dsp]A1_1(a)  0.00000
 119 Pmmm[0,0,1/3]LD1(a,0)[O3:r:dsp]A1_2(a)  0.00000
 120 Pmmm[1/3,0,0]SM1(a,0)[O3:r:dsp]A1(a)  0.00000
 121 Pmmm[1/3,0,0]SM1(a,0)[O3:r:dsp]B1(a)  0.00000
 122 Pmmm[0,1/3,1/3]K1(a,0;a,0)[O3:r:dsp]A1_1(a)  0.00000
 123 Pmmm[0,1/3,1/3]K1(a,0;a,0)[O3:r:dsp]A1_2(a)  0.00000
 124 Pmmm[0,1/3,1/3]K1(a,0;a,0)[O3:r:dsp]B2_1(a)  0.00000
 125 Pmmm[0,1/3,1/3]K1(a,0;a,0)[O3:r:dsp]B2_2(a)  0.00000
 126 Pmmm[1/3,0,1/3]M1(a,0;a,0)[O3:r:dsp]A1_1(a)  0.00000
 127 Pmmm[1/3,0,1/3]M1(a,0;a,0)[O3:r:dsp]A1_2(a)  0.00000
 128 Pmmm[1/3,0,1/3]M1(a,0;a,0)[O3:r:dsp]B1_1(a)  0.00000
 129 Pmmm[1/3,0,1/3]M1(a,0;a,0)[O3:r:dsp]B1_2(a)  0.00000
 130 Pmmm[1/3,1/3,0]V1(a,0;a,0)[O3:r:dsp]A1(a)  0.00000
 131 Pmmm[1/3,1/3,0]V1(a,0;a,0)[O3:r:dsp]B2(a)  0.00000
 132 Pmmm[1/3,1/3,0]V1(a,0;a,0)[O3:r:dsp]B1(a)  0.00000
 133 Pmmm[1/3,1/3,1/3]GP1(a,0;a,0;a,0;a,0)[O4:q:dsp]A1_1(a)  0.00000
 134 Pmmm[1/3,1/3,1/3]GP1(a,0;a,0;a,0;a,0)[O4:q:dsp]A1_2(a)  0.00000
 135 Pmmm[1/3,1/3,1/3]GP1(a,0;a,0;a,0;a,0)[O4:q:dsp]B2_1(a)  0.00000
 136 Pmmm[1/3,1/3,1/3]GP1(a,0;a,0;a,0;a,0)[O4:q:dsp]B2_2(a)  0.00000
 137 Pmmm[1/3,1/3,1/3]GP1(a,0;a,0;a,0;a,0)[O4:q:dsp]B1_1(a)  0.00000
 138 Pmmm[1/3,1/3,1/3]GP1(a,0;a,0;a,0;a,0)[O4:q:dsp]B1_2(a)  0.00000
 139 Pmmm[0,0,0]GM1+(a)[O4:q:dsp]A1(a)  0.00000
 140 Pmmm[0,1/3,0]DT1(a,0)[O4:q:dsp]A1(a)  0.00000
 141 Pmmm[0,1/3,0]DT1(a,0)[O4:q:dsp]B2(a)  0.00000
 142 Pmmm[0,0,1/3]LD1(a,0)[O4:q:dsp]A1_1(a)  0.00000
 143 Pmmm[0,0,1/3]LD1(a,0)[O4:q:dsp]A1_2(a)  0.00000
 144 Pmmm[1/3,0,0]SM1(a,0)[O4:q:dsp]A1(a)  0.00000
 145 Pmmm[1/3,0,0]SM1(a,0)[O4:q:dsp]B1(a)  0.00000
 146 Pmmm[0,1/3,1/3]K1(a,0;a,0)[O4:q:dsp]A1_1(a)  0.00000
 147 Pmmm[0,1/3,1/3]K1(a,0;a,0)[O4:q:dsp]A1_2(a)  0.00000
 148 Pmmm[0,1/3,1/3]K1(a,0;a,0)[O4:q:dsp]B2_1(a)  0.00000
 149 Pmmm[0,1/3,1/3]K1(a,0;a,0)[O4:q:dsp]B2_2(a)  0.00000
 150 Pmmm[1/3,0,1/3]M1(a,0;a,0)[O4:q:dsp]A1_1(a)  0.00000
 151 Pmmm[1/3,0,1/3]M1(a,0;a,0)[O4:q:dsp]A1_2(a)  0.00000
 152 Pmmm[1/3,0,1/3]M1(a,0;a,0)[O4:q:dsp]B1_1(a)  0.00000
 153 Pmmm[1/3,0,1/3]M1(a,0;a,0)[O4:q:dsp]B1_2(a)  0.00000
 154 Pmmm[1/3,1/3,0]V1(a,0;a,0)[O4:q:dsp]A1(a)  0.00000
 155 Pmmm[1/3,1/3,0]V1(a,0;a,0)[O4:q:dsp]B2(a)  0.00000
 156 Pmmm[1/3,1/3,0]V1(a,0;a,0)[O4:q:dsp]B1(a)  0.00000

loop_
_iso_displacivemodenorm_ID
_iso_displacivemodenorm_value
   1  0.04113
   2  0.01345
   3  0.04044
   4  0.02022
   5  0.00672
   6  0.02057
   7  0.00951
   8  0.02860
   9  0.02908
  10  0.00951
  11  0.02908
  12  0.02860
  13  0.01098
  14  0.00951
  15  0.02477
  16  0.02860
  17  0.02519
  18  0.02908
  19  0.00388
  20  0.00549
  21  0.01430
  22  0.00549
  23  0.00476
  24  0.00549
  25  0.01454
  26  0.00776
  27  0.00672
  28  0.01751
  29  0.02022
  30  0.00776
  31  0.00672
  32  0.01781
  33  0.02057
  34  0.00776
  35  0.02022
  36  0.02057
  37  0.04113
  38  0.01345
  39  0.04044
  40  0.02022
  41  0.00672
  42  0.02057
  43  0.00951
  44  0.02860
  45  0.02908
  46  0.00951
  47  0.02908
  48  0.02860
  49  0.01098
  50  0.00951
  51  0.02477
  52  0.02860
  53  0.02519
  54  0.02908
  55  0.00388
  56  0.00549
  57  0.01430
  58  0.00549
  59  0.00476
  60  0.00549
  61  0.01454
  62  0.00776
  63  0.00672
  64  0.01751
  65  0.02022
  66  0.00776
  67  0.00672
  68  0.01781
  69  0.02057
  70  0.00776
  71  0.02022
  72  0.02057
  73  0.04113
  74  0.01345
  75  0.04044
  76  0.02022
  77  0.00672
  78  0.02057
  79  0.00951
  80  0.02860
  81  0.02908
  82  0.00951
  83  0.02908
  84  0.02860
  85  0.01098
  86  0.00951
  87  0.02477
  88  0.02860
  89  0.02519
  90  0.02908
  91  0.00388
  92  0.00549
  93  0.01430
  94  0.00549
  95  0.00476
  96  0.00549
  97  0.01454
  98  0.00776
  99  0.00672
 100  0.01751
 101  0.02022
 102  0.00776
 103  0.00672
 104  0.01781
 105  0.02057
 106  0.00776
 107  0.02022
 108  0.02057
 109  0.01098
 110  0.00951
 111  0.02477
 112  0.02860
 113  0.02519
 114  0.02908
 115  0.00388
 116  0.00549
 117  0.01430
 118  0.00549
 119  0.00476
 120  0.00549
 121  0.01454
 122  0.00776
 123  0.00672
 124  0.01751
 125  0.02022
 126  0.00776
 127  0.00672
 128  0.01781
 129  0.02057
 130  0.00776
 131  0.02022
 132  0.02057
 133  0.01098
 134  0.00951
 135  0.02477
 136  0.02860
 137  0.02519
 138  0.02908
 139  0.00388
 140  0.00549
 141  0.01430
 142  0.00549
 143  0.00476
 144  0.00549
 145  0.01454
 146  0.00776
 147  0.00672
 148  0.01751
 149  0.02022
 150  0.00776
 151  0.00672
 152  0.01781
 153  0.02057
 154  0.00776
 155  0.02022
 156  0.02057

loop_
_iso_deltacoordinate_ID
_iso_deltacoordinate_label
_iso_deltacoordinate_value
   1 Pr1_1_dx   0.00000
   2 Pr1_1_dy   0.00000
   3 Pr1_1_dz   0.00000
   4 Pr1_2_dx   0.00000
   5 Pr1_2_dy   0.00000
   6 Pr1_3_dx   0.00000
   7 Pr1_3_dz   0.00000
   8 Pr1_4_dx   0.00000
   9 Pr1_5_dy   0.00000
  10 Pr1_5_dz   0.00000
  11 Pr1_6_dy   0.00000
  12 Pr1_7_dz   0.00000
  13 Ba1_1_dx   0.00000
  14 Ba1_1_dy   0.00000
  15 Ba1_1_dz   0.00000
  16 Ba1_2_dx   0.00000
  17 Ba1_2_dy   0.00000
  18 Ba1_3_dx   0.00000
  19 Ba1_3_dy   0.00000
  20 Ba1_3_dz   0.00000
  21 Ba1_4_dx   0.00000
  22 Ba1_4_dy   0.00000
  23 Ba1_5_dx   0.00000
  24 Ba1_5_dy   0.00000
  25 Ba1_5_dz   0.00000
  26 Ba1_6_dx   0.00000
  27 Ba1_6_dy   0.00000
  28 Ba1_7_dy   0.00000
  29 Ba1_7_dz   0.00000
  30 Ba1_8_dy   0.00000
  31 Ba1_9_dy   0.00000
  32 Ba1_9_dz   0.00000
  33 Ba1_10_dy   0.00000
  34 Ba1_11_dy   0.00000
  35 Ba1_11_dz   0.00000
  36 Ba1_12_dy   0.00000
  37 Cu1_2_dz   0.00000
  38 Cu1_3_dy   0.00000
  39 Cu1_4_dy   0.00000
  40 Cu1_4_dz   0.00000
  41 Cu1_5_dx   0.00000
  42 Cu1_6_dx   0.00000
  43 Cu1_6_dz   0.00000
  44 Cu1_7_dx   0.00000
  45 Cu1_7_dy   0.00000
  46 Cu1_8_dx   0.00000
  47 Cu1_8_dy   0.00000
  48 Cu1_8_dz   0.00000
  49 Cu2_1_dy   0.00000
  50 Cu2_2_dy   0.00000
  51 Cu2_2_dz   0.00000
  52 Cu2_3_dy   0.00000
  53 Cu2_4_dy   0.00000
  54 Cu2_4_dz   0.00000
  55 Cu2_5_dy   0.00000
  56 Cu2_6_dy   0.00000
  57 Cu2_6_dz   0.00000
  58 Cu2_7_dx   0.00000
  59 Cu2_7_dy   0.00000
  60 Cu2_8_dx   0.00000
  61 Cu2_8_dy   0.00000
  62 Cu2_8_dz   0.00000
  63 Cu2_9_dx   0.00000
  64 Cu2_9_dy   0.00000
  65 Cu2_10_dx   0.00000
  66 Cu2_10_dy   0.00000
  67 Cu2_10_dz   0.00000
  68 Cu2_11_dx   0.00000
  69 Cu2_11_dy   0.00000
  70 Cu2_12_dx   0.00000
  71 Cu2_12_dy   0.00000
  72 Cu2_12_dz   0.00000
  73 O1_1_dz   0.00000
  74 O1_3_dy   0.00000
  75 O1_3_dz   0.00000
  76 O1_4_dy   0.00000
  77 O1_5_dx   0.00000
  78 O1_5_dz   0.00000
  79 O1_6_dx   0.00000
  80 O1_7_dx   0.00000
  81 O1_7_dy   0.00000
  82 O1_7_dz   0.00000
  83 O1_8_dx   0.00000
  84 O1_8_dy   0.00000
  85 O2_1_dx   0.00000
  86 O2_1_dy   0.00000
  87 O2_2_dx   0.00000
  88 O2_2_dy   0.00000
  89 O2_2_dz   0.00000
  90 O2_3_dx   0.00000
  91 O2_3_dy   0.00000
  92 O2_4_dx   0.00000
  93 O2_4_dy   0.00000
  94 O2_4_dz   0.00000
  95 O2_5_dx   0.00000
  96 O2_5_dy   0.00000
  97 O2_6_dx   0.00000
  98 O2_6_dy   0.00000
  99 O2_6_dz   0.00000
 100 O2_7_dy   0.00000
 101 O2_8_dy   0.00000
 102 O2_8_dz   0.00000
 103 O2_9_dy   0.00000
 104 O2_10_dy   0.00000
 105 O2_10_dz   0.00000
 106 O2_11_dy   0.00000
 107 O2_12_dy   0.00000
 108 O2_12_dz   0.00000
 109 O3_1_dy   0.00000
 110 O3_1_dz   0.00000
 111 O3_2_dy   0.00000
 112 O3_3_dy   0.00000
 113 O3_3_dz   0.00000
 114 O3_4_dy   0.00000
 115 O3_5_dy   0.00000
 116 O3_5_dz   0.00000
 117 O3_6_dy   0.00000
 118 O3_7_dx   0.00000
 119 O3_7_dy   0.00000
 120 O3_7_dz   0.00000
 121 O3_8_dx   0.00000
 122 O3_8_dy   0.00000
 123 O3_9_dx   0.00000
 124 O3_9_dy   0.00000
 125 O3_9_dz   0.00000
 126 O3_10_dx   0.00000
 127 O3_10_dy   0.00000
 128 O3_11_dx   0.00000
 129 O3_11_dy   0.00000
 130 O3_11_dz   0.00000
 131 O3_12_dx   0.00000
 132 O3_12_dy   0.00000
 133 O4_1_dy   0.00000
 134 O4_2_dy   0.00000
 135 O4_2_dz   0.00000
 136 O4_3_dy   0.00000
 137 O4_4_dy   0.00000
 138 O4_4_dz   0.00000
 139 O4_5_dy   0.00000
 140 O4_6_dy   0.00000
 141 O4_6_dz   0.00000
 142 O4_7_dx   0.00000
 143 O4_7_dy   0.00000
 144 O4_8_dx   0.00000
 145 O4_8_dy   0.00000
 146 O4_8_dz   0.00000
 147 O4_9_dx   0.00000
 148 O4_9_dy   0.00000
 149 O4_10_dx   0.00000
 150 O4_10_dy   0.00000
 151 O4_10_dz   0.00000
 152 O4_11_dx   0.00000
 153 O4_11_dy   0.00000
 154 O4_12_dx   0.00000
 155 O4_12_dy   0.00000
 156 O4_12_dz   0.00000

loop_
_iso_coordinate_label
_iso_coordinate_formula
Pr1_1_x                 "5/6 + Pr1_1_dx"
Pr1_1_y                 "1/6 + Pr1_1_dy"
Pr1_1_z                 "1/6 + Pr1_1_dz"
Pr1_2_x                 "5/6 + Pr1_2_dx"
Pr1_2_y                 "1/6 + Pr1_2_dy"
Pr1_2_z                 "1/2 + Pr1_2_dz"
Pr1_3_x                 "5/6 + Pr1_3_dx"
Pr1_3_y                 "1/2 + Pr1_3_dy"
Pr1_3_z                 "1/6 + Pr1_3_dz"
Pr1_4_x                 "5/6 + Pr1_4_dx"
Pr1_4_y                 "1/2 + Pr1_4_dy"
Pr1_4_z                 "1/2 + Pr1_4_dz"
Pr1_5_x                 "1/2 + Pr1_5_dx"
Pr1_5_y                 "1/6 + Pr1_5_dy"
Pr1_5_z                 "1/6 + Pr1_5_dz"
Pr1_6_x                 "1/2 + Pr1_6_dx"
Pr1_6_y                 "1/6 + Pr1_6_dy"
Pr1_6_z                 "1/2 + Pr1_6_dz"
Pr1_7_x                 "1/2 + Pr1_7_dx"
Pr1_7_y                 "1/2 + Pr1_7_dy"
Pr1_7_z                 "1/6 + Pr1_7_dz"
Pr1_8_x                 "1/2 + Pr1_8_dx"
Pr1_8_y                 "1/2 + Pr1_8_dy"
Pr1_8_z                 "1/2 + Pr1_8_dz"
Ba1_1_x                 "5/6 + Ba1_1_dx"
Ba1_1_y                 "   0.06131 + Ba1_1_dy"
Ba1_1_z                 "1/6 + Ba1_1_dz"
Ba1_2_x                 "5/6 + Ba1_2_dx"
Ba1_2_y                 "   0.06131 + Ba1_2_dy"
Ba1_2_z                 "1/2 + Ba1_2_dz"
Ba1_3_x                 "5/6 + Ba1_3_dx"
Ba1_3_y                 "   0.39464 + Ba1_3_dy"
Ba1_3_z                 "1/6 + Ba1_3_dz"
Ba1_4_x                 "5/6 + Ba1_4_dx"
Ba1_4_y                 "   0.39464 + Ba1_4_dy"
Ba1_4_z                 "1/2 + Ba1_4_dz"
Ba1_5_x                 "5/6 + Ba1_5_dx"
Ba1_5_y                 "   0.72798 + Ba1_5_dy"
Ba1_5_z                 "1/6 + Ba1_5_dz"
Ba1_6_x                 "5/6 + Ba1_6_dx"
Ba1_6_y                 "   0.72798 + Ba1_6_dy"
Ba1_6_z                 "1/2 + Ba1_6_dz"
Ba1_7_x                 "1/2 + Ba1_7_dx"
Ba1_7_y                 "   0.06131 + Ba1_7_dy"
Ba1_7_z                 "1/6 + Ba1_7_dz"
Ba1_8_x                 "1/2 + Ba1_8_dx"
Ba1_8_y                 "   0.06131 + Ba1_8_dy"
Ba1_8_z                 "1/2 + Ba1_8_dz"
Ba1_9_x                 "1/2 + Ba1_9_dx"
Ba1_9_y                 "   0.39464 + Ba1_9_dy"
Ba1_9_z                 "1/6 + Ba1_9_dz"
Ba1_10_x                "1/2 + Ba1_10_dx"
Ba1_10_y                "   0.39464 + Ba1_10_dy"
Ba1_10_z                "1/2 + Ba1_10_dz"
Ba1_11_x                "1/2 + Ba1_11_dx"
Ba1_11_y                "   0.72798 + Ba1_11_dy"
Ba1_11_z                "1/6 + Ba1_11_dz"
Ba1_12_x                "1/2 + Ba1_12_dx"
Ba1_12_y                "   0.72798 + Ba1_12_dy"
Ba1_12_z                "1/2 + Ba1_12_dz"
Cu1_1_x                 "0 + Cu1_1_dx"
Cu1_1_y                 "0 + Cu1_1_dy"
Cu1_1_z                 "0 + Cu1_1_dz"
Cu1_2_x                 "0 + Cu1_2_dx"
Cu1_2_y                 "0 + Cu1_2_dy"
Cu1_2_z                 "1/3 + Cu1_2_dz"
Cu1_3_x                 "0 + Cu1_3_dx"
Cu1_3_y                 "1/3 + Cu1_3_dy"
Cu1_3_z                 "0 + Cu1_3_dz"
Cu1_4_x                 "0 + Cu1_4_dx"
Cu1_4_y                 "1/3 + Cu1_4_dy"
Cu1_4_z                 "1/3 + Cu1_4_dz"
Cu1_5_x                 "1/3 + Cu1_5_dx"
Cu1_5_y                 "0 + Cu1_5_dy"
Cu1_5_z                 "0 + Cu1_5_dz"
Cu1_6_x                 "1/3 + Cu1_6_dx"
Cu1_6_y                 "0 + Cu1_6_dy"
Cu1_6_z                 "1/3 + Cu1_6_dz"
Cu1_7_x                 "1/3 + Cu1_7_dx"
Cu1_7_y                 "1/3 + Cu1_7_dy"
Cu1_7_z                 "0 + Cu1_7_dz"
Cu1_8_x                 "1/3 + Cu1_8_dx"
Cu1_8_y                 "1/3 + Cu1_8_dy"
Cu1_8_z                 "1/3 + Cu1_8_dz"
Cu2_1_x                 "0 + Cu2_1_dx"
Cu2_1_y                 "   0.11834 + Cu2_1_dy"
Cu2_1_z                 "0 + Cu2_1_dz"
Cu2_2_x                 "0 + Cu2_2_dx"
Cu2_2_y                 "   0.11834 + Cu2_2_dy"
Cu2_2_z                 "1/3 + Cu2_2_dz"
Cu2_3_x                 "0 + Cu2_3_dx"
Cu2_3_y                 "   0.45167 + Cu2_3_dy"
Cu2_3_z                 "0 + Cu2_3_dz"
Cu2_4_x                 "0 + Cu2_4_dx"
Cu2_4_y                 "   0.45167 + Cu2_4_dy"
Cu2_4_z                 "1/3 + Cu2_4_dz"
Cu2_5_x                 "0 + Cu2_5_dx"
Cu2_5_y                 "   0.78500 + Cu2_5_dy"
Cu2_5_z                 "0 + Cu2_5_dz"
Cu2_6_x                 "0 + Cu2_6_dx"
Cu2_6_y                 "   0.78500 + Cu2_6_dy"
Cu2_6_z                 "1/3 + Cu2_6_dz"
Cu2_7_x                 "1/3 + Cu2_7_dx"
Cu2_7_y                 "   0.11834 + Cu2_7_dy"
Cu2_7_z                 "0 + Cu2_7_dz"
Cu2_8_x                 "1/3 + Cu2_8_dx"
Cu2_8_y                 "   0.11834 + Cu2_8_dy"
Cu2_8_z                 "1/3 + Cu2_8_dz"
Cu2_9_x                 "1/3 + Cu2_9_dx"
Cu2_9_y                 "   0.45167 + Cu2_9_dy"
Cu2_9_z                 "0 + Cu2_9_dz"
Cu2_10_x                "1/3 + Cu2_10_dx"
Cu2_10_y                "   0.45167 + Cu2_10_dy"
Cu2_10_z                "1/3 + Cu2_10_dz"
Cu2_11_x                "1/3 + Cu2_11_dx"
Cu2_11_y                "   0.78500 + Cu2_11_dy"
Cu2_11_z                "0 + Cu2_11_dz"
Cu2_12_x                "1/3 + Cu2_12_dx"
Cu2_12_y                "   0.78500 + Cu2_12_dy"
Cu2_12_z                "1/3 + Cu2_12_dz"
O1_1_x                  "0 + O1_1_dx"
O1_1_y                  "0 + O1_1_dy"
O1_1_z                  "1/6 + O1_1_dz"
O1_2_x                  "0 + O1_2_dx"
O1_2_y                  "0 + O1_2_dy"
O1_2_z                  "1/2 + O1_2_dz"
O1_3_x                  "0 + O1_3_dx"
O1_3_y                  "1/3 + O1_3_dy"
O1_3_z                  "1/6 + O1_3_dz"
O1_4_x                  "0 + O1_4_dx"
O1_4_y                  "1/3 + O1_4_dy"
O1_4_z                  "1/2 + O1_4_dz"
O1_5_x                  "1/3 + O1_5_dx"
O1_5_y                  "0 + O1_5_dy"
O1_5_z                  "1/6 + O1_5_dz"
O1_6_x                  "1/3 + O1_6_dx"
O1_6_y                  "0 + O1_6_dy"
O1_6_z                  "1/2 + O1_6_dz"
O1_7_x                  "1/3 + O1_7_dx"
O1_7_y                  "1/3 + O1_7_dy"
O1_7_z                  "1/6 + O1_7_dz"
O1_8_x                  "1/3 + O1_8_dx"
O1_8_y                  "1/3 + O1_8_dy"
O1_8_z                  "1/2 + O1_8_dz"
O2_1_x                  "5/6 + O2_1_dx"
O2_1_y                  "   0.12606 + O2_1_dy"
O2_1_z                  "0 + O2_1_dz"
O2_2_x                  "5/6 + O2_2_dx"
O2_2_y                  "   0.12606 + O2_2_dy"
O2_2_z                  "1/3 + O2_2_dz"
O2_3_x                  "5/6 + O2_3_dx"
O2_3_y                  "   0.45940 + O2_3_dy"
O2_3_z                  "0 + O2_3_dz"
O2_4_x                  "5/6 + O2_4_dx"
O2_4_y                  "   0.45940 + O2_4_dy"
O2_4_z                  "1/3 + O2_4_dz"
O2_5_x                  "5/6 + O2_5_dx"
O2_5_y                  "   0.79273 + O2_5_dy"
O2_5_z                  "0 + O2_5_dz"
O2_6_x                  "5/6 + O2_6_dx"
O2_6_y                  "   0.79273 + O2_6_dy"
O2_6_z                  "1/3 + O2_6_dz"
O2_7_x                  "1/2 + O2_7_dx"
O2_7_y                  "   0.12606 + O2_7_dy"
O2_7_z                  "0 + O2_7_dz"
O2_8_x                  "1/2 + O2_8_dx"
O2_8_y                  "   0.12606 + O2_8_dy"
O2_8_z                  "1/3 + O2_8_dz"
O2_9_x                  "1/2 + O2_9_dx"
O2_9_y                  "   0.45940 + O2_9_dy"
O2_9_z                  "0 + O2_9_dz"
O2_10_x                 "1/2 + O2_10_dx"
O2_10_y                 "   0.45940 + O2_10_dy"
O2_10_z                 "1/3 + O2_10_dz"
O2_11_x                 "1/2 + O2_11_dx"
O2_11_y                 "   0.79273 + O2_11_dy"
O2_11_z                 "0 + O2_11_dz"
O2_12_x                 "1/2 + O2_12_dx"
O2_12_y                 "   0.79273 + O2_12_dy"
O2_12_z                 "1/3 + O2_12_dz"
O3_1_x                  "0 + O3_1_dx"
O3_1_y                  "   0.12564 + O3_1_dy"
O3_1_z                  "1/6 + O3_1_dz"
O3_2_x                  "0 + O3_2_dx"
O3_2_y                  "   0.12564 + O3_2_dy"
O3_2_z                  "1/2 + O3_2_dz"
O3_3_x                  "0 + O3_3_dx"
O3_3_y                  "   0.45898 + O3_3_dy"
O3_3_z                  "1/6 + O3_3_dz"
O3_4_x                  "0 + O3_4_dx"
O3_4_y                  "   0.45898 + O3_4_dy"
O3_4_z                  "1/2 + O3_4_dz"
O3_5_x                  "0 + O3_5_dx"
O3_5_y                  "   0.79231 + O3_5_dy"
O3_5_z                  "1/6 + O3_5_dz"
O3_6_x                  "0 + O3_6_dx"
O3_6_y                  "   0.79231 + O3_6_dy"
O3_6_z                  "1/2 + O3_6_dz"
O3_7_x                  "1/3 + O3_7_dx"
O3_7_y                  "   0.12564 + O3_7_dy"
O3_7_z                  "1/6 + O3_7_dz"
O3_8_x                  "1/3 + O3_8_dx"
O3_8_y                  "   0.12564 + O3_8_dy"
O3_8_z                  "1/2 + O3_8_dz"
O3_9_x                  "1/3 + O3_9_dx"
O3_9_y                  "   0.45898 + O3_9_dy"
O3_9_z                  "1/6 + O3_9_dz"
O3_10_x                 "1/3 + O3_10_dx"
O3_10_y                 "   0.45898 + O3_10_dy"
O3_10_z                 "1/2 + O3_10_dz"
O3_11_x                 "1/3 + O3_11_dx"
O3_11_y                 "   0.79231 + O3_11_dy"
O3_11_z                 "1/6 + O3_11_dz"
O3_12_x                 "1/3 + O3_12_dx"
O3_12_y                 "   0.79231 + O3_12_dy"
O3_12_z                 "1/2 + O3_12_dz"
O4_1_x                  "0 + O4_1_dx"
O4_1_y                  "   0.05280 + O4_1_dy"
O4_1_z                  "0 + O4_1_dz"
O4_2_x                  "0 + O4_2_dx"
O4_2_y                  "   0.05280 + O4_2_dy"
O4_2_z                  "1/3 + O4_2_dz"
O4_3_x                  "0 + O4_3_dx"
O4_3_y                  "   0.38613 + O4_3_dy"
O4_3_z                  "0 + O4_3_dz"
O4_4_x                  "0 + O4_4_dx"
O4_4_y                  "   0.38613 + O4_4_dy"
O4_4_z                  "1/3 + O4_4_dz"
O4_5_x                  "0 + O4_5_dx"
O4_5_y                  "   0.71947 + O4_5_dy"
O4_5_z                  "0 + O4_5_dz"
O4_6_x                  "0 + O4_6_dx"
O4_6_y                  "   0.71947 + O4_6_dy"
O4_6_z                  "1/3 + O4_6_dz"
O4_7_x                  "1/3 + O4_7_dx"
O4_7_y                  "   0.05280 + O4_7_dy"
O4_7_z                  "0 + O4_7_dz"
O4_8_x                  "1/3 + O4_8_dx"
O4_8_y                  "   0.05280 + O4_8_dy"
O4_8_z                  "1/3 + O4_8_dz"
O4_9_x                  "1/3 + O4_9_dx"
O4_9_y                  "   0.38613 + O4_9_dy"
O4_9_z                  "0 + O4_9_dz"
O4_10_x                 "1/3 + O4_10_dx"
O4_10_y                 "   0.38613 + O4_10_dy"
O4_10_z                 "1/3 + O4_10_dz"
O4_11_x                 "1/3 + O4_11_dx"
O4_11_y                 "   0.71947 + O4_11_dy"
O4_11_z                 "0 + O4_11_dz"
O4_12_x                 "1/3 + O4_12_dx"
O4_12_y                 "   0.71947 + O4_12_dy"
O4_12_z                 "1/3 + O4_12_dz"

# matrix conversion: deltacoords(lattice units) = matrix.(modeamplitudes*modenormfactors)
# Square matrix with _iso_displacivemode_number rows and columns

loop_
_iso_displacivemodematrix_row
_iso_displacivemodematrix_col
_iso_displacivemodematrix_value
    1    1   0.25000
    1    6  -1.00000
    1    9  -0.50000
    1   11  -0.50000
    2    2  -0.25000
    2    5   1.00000
    2    7   0.50000
    2   10   0.50000
    3    3  -0.25000
    3    4   1.00000
    3    8   0.50000
    3   12   0.50000
    4    1  -0.50000
    4    6  -1.00000
    4    9  -0.50000
    4   11   1.00000
    5    2   0.50000
    5    5   1.00000
    5    7  -1.00000
    5   10   0.50000
    6    1  -0.50000
    6    6  -1.00000
    6    9   1.00000
    6   11  -0.50000
    7    3   0.50000
    7    4   1.00000
    7    8  -1.00000
    7   12   0.50000
    8    1   1.00000
    8    6  -1.00000
    8    9   1.00000
    8   11   1.00000
    9    2   0.50000
    9    5   1.00000
    9    7   0.50000
    9   10  -1.00000
   10    3   0.50000
   10    4   1.00000
   10    8   0.50000
   10   12  -1.00000
   11    2  -1.00000
   11    5   1.00000
   11    7  -1.00000
   11   10  -1.00000
   12    3  -1.00000
   12    4   1.00000
   12    8  -1.00000
   12   12  -1.00000
   13   17  -0.50000
   13   18   0.25000
   13   25  -1.00000
   13   32  -1.00000
   13   33  -0.50000
   13   36  -0.50000
   14   13  -0.12500
   14   14  -0.25000
   14   19   1.00000
   14   20   0.50000
   14   22   1.00000
   14   24   0.50000
   14   26   0.25000
   14   27  -0.50000
   14   30   0.25000
   14   31  -0.50000
   14   34  -0.25000
   15   15   0.50000
   15   16  -0.25000
   15   21   1.00000
   15   28   1.00000
   15   29   0.50000
   15   35   0.50000
   16   17   1.00000
   16   18  -0.50000
   16   25  -1.00000
   16   32  -1.00000
   16   33  -0.50000
   16   36   1.00000
   17   13   0.25000
   17   14   0.50000
   17   19   1.00000
   17   20  -1.00000
   17   22   1.00000
   17   24   0.50000
   17   26  -0.50000
   17   27   1.00000
   17   30   0.25000
   17   31  -0.50000
   17   34   0.50000
   18   18  -0.50000
   18   25  -1.00000
   18   32   1.00000
   18   33  -0.50000
   18   36  -0.50000
   19   13   0.25000
   19   19   1.00000
   19   20   0.50000
   19   22  -0.50000
   19   23   1.00000
   19   24   0.50000
   19   26   0.25000
   19   27   0.50000
   19   30   0.25000
   19   31   0.50000
   19   34  -0.25000
   20   16   0.50000
   20   21   1.00000
   20   28  -1.00000
   20   29   0.50000
   20   35   0.50000
   21   18   1.00000
   21   25  -1.00000
   21   32   1.00000
   21   33  -0.50000
   21   36   1.00000
   22   13  -0.50000
   22   19   1.00000
   22   20  -1.00000
   22   22  -0.50000
   22   23   1.00000
   22   24   0.50000
   22   26  -0.50000
   22   27  -1.00000
   22   30   0.25000
   22   31   0.50000
   22   34   0.50000
   23   17   0.50000
   23   18   0.25000
   23   25  -1.00000
   23   33   1.00000
   23   36  -0.50000
   24   13  -0.12500
   24   14   0.25000
   24   19   1.00000
   24   20   0.50000
   24   22  -0.50000
   24   23  -1.00000
   24   24   0.50000
   24   26  -0.50000
   24   30  -0.50000
   24   34  -0.25000
   25   15  -0.50000
   25   16  -0.25000
   25   21   1.00000
   25   29  -1.00000
   25   35   0.50000
   26   17  -1.00000
   26   18  -0.50000
   26   25  -1.00000
   26   33   1.00000
   26   36   1.00000
   27   13   0.25000
   27   14  -0.50000
   27   19   1.00000
   27   20  -1.00000
   27   22  -0.50000
   27   23  -1.00000
   27   24   0.50000
   27   26   1.00000
   27   30  -0.50000
   27   34   0.50000
   28   13   0.25000
   28   14   0.50000
   28   19   1.00000
   28   20   0.50000
   28   22   1.00000
   28   24  -1.00000
   28   26   0.25000
   28   27  -0.50000
   28   30  -0.50000
   28   31   1.00000
   28   34   0.50000
   29   15  -1.00000
   29   16   0.50000
   29   21   1.00000
   29   28   1.00000
   29   29   0.50000
   29   35  -1.00000
   30   13  -0.50000
   30   14  -1.00000
   30   19   1.00000
   30   20  -1.00000
   30   22   1.00000
   30   24  -1.00000
   30   26  -0.50000
   30   27   1.00000
   30   30  -0.50000
   30   31   1.00000
   30   34  -1.00000
   31   13  -0.50000
   31   19   1.00000
   31   20   0.50000
   31   22  -0.50000
   31   23   1.00000
   31   24  -1.00000
   31   26   0.25000
   31   27   0.50000
   31   30  -0.50000
   31   31  -1.00000
   31   34   0.50000
   32   16  -1.00000
   32   21   1.00000
   32   28  -1.00000
   32   29   0.50000
   32   35  -1.00000
   33   13   1.00000
   33   19   1.00000
   33   20  -1.00000
   33   22  -0.50000
   33   23   1.00000
   33   24  -1.00000
   33   26  -0.50000
   33   27  -1.00000
   33   30  -0.50000
   33   31  -1.00000
   33   34  -1.00000
   34   13   0.25000
   34   14  -0.50000
   34   19   1.00000
   34   20   0.50000
   34   22  -0.50000
   34   23  -1.00000
   34   24  -1.00000
   34   26  -0.50000
   34   30   1.00000
   34   34   0.50000
   35   15   1.00000
   35   16   0.50000
   35   21   1.00000
   35   29  -1.00000
   35   35  -1.00000
   36   13  -0.50000
   36   14   1.00000
   36   19   1.00000
   36   20  -1.00000
   36   22  -0.50000
   36   23  -1.00000
   36   24  -1.00000
   36   26   1.00000
   36   30   1.00000
   36   34  -1.00000
   37   39   1.00000
   37   40   1.00000
   37   44   1.00000
   37   48   1.00000
   38   38   1.00000
   38   41   1.00000
   38   43   1.00000
   38   46   1.00000
   39   38  -0.50000
   39   41   1.00000
   39   43  -0.50000
   39   46   1.00000
   40   39  -0.50000
   40   40   1.00000
   40   44  -0.50000
   40   48   1.00000
   41   37   1.00000
   41   42   1.00000
   41   45   1.00000
   41   47   1.00000
   42   37  -0.50000
   42   42   1.00000
   42   45   1.00000
   42   47  -0.50000
   43   39  -0.50000
   43   40   1.00000
   43   44   1.00000
   43   48  -0.50000
   44   37  -0.50000
   44   42   1.00000
   44   45  -0.50000
   44   47   1.00000
   45   38  -0.50000
   45   41   1.00000
   45   43   1.00000
   45   46  -0.50000
   46   37   0.25000
   46   42   1.00000
   46   45  -0.50000
   46   47  -0.50000
   47   38   0.25000
   47   41   1.00000
   47   43  -0.50000
   47   46  -0.50000
   48   39   0.25000
   48   40   1.00000
   48   44  -0.50000
   48   48  -0.50000
   49   49   1.00000
   49   55   1.00000
   49   56   1.00000
   49   58   1.00000
   49   60   1.00000
   49   62   1.00000
   49   66   1.00000
   49   70   1.00000
   50   49  -0.50000
   50   55   1.00000
   50   56  -0.50000
   50   58   1.00000
   50   60   1.00000
   50   62  -0.50000
   50   66   1.00000
   50   70  -0.50000
   51   52   1.00000
   51   57   1.00000
   51   65   1.00000
   51   71   1.00000
   52   49  -0.50000
   52   50   1.00000
   52   55   1.00000
   52   56   1.00000
   52   58  -0.50000
   52   59   1.00000
   52   60   1.00000
   52   62  -0.50000
   52   63   1.00000
   52   66  -0.50000
   52   67   1.00000
   52   70   1.00000
   53   49   0.25000
   53   50  -0.50000
   53   55   1.00000
   53   56  -0.50000
   53   58  -0.50000
   53   59   1.00000
   53   60   1.00000
   53   62   0.25000
   53   63  -0.50000
   53   66  -0.50000
   53   67   1.00000
   53   70  -0.50000
   54   51  -1.00000
   54   52  -0.50000
   54   57   1.00000
   54   64  -1.00000
   54   65  -0.50000
   54   71   1.00000
   55   49  -0.50000
   55   50  -1.00000
   55   55   1.00000
   55   56   1.00000
   55   58  -0.50000
   55   59  -1.00000
   55   60   1.00000
   55   62  -0.50000
   55   63  -1.00000
   55   66  -0.50000
   55   67  -1.00000
   55   70   1.00000
   56   49   0.25000
   56   50   0.50000
   56   55   1.00000
   56   56  -0.50000
   56   58  -0.50000
   56   59  -1.00000
   56   60   1.00000
   56   62   0.25000
   56   63   0.50000
   56   66  -0.50000
   56   67  -1.00000
   56   70  -0.50000
   57   51   1.00000
   57   52  -0.50000
   57   57   1.00000
   57   64   1.00000
   57   65  -0.50000
   57   71   1.00000
   58   54   1.00000
   58   61   1.00000
   58   69   1.00000
   58   72   1.00000
   59   49  -0.50000
   59   55   1.00000
   59   56   1.00000
   59   58   1.00000
   59   60  -0.50000
   59   62   1.00000
   59   66  -0.50000
   59   70  -0.50000
   60   54  -0.50000
   60   61   1.00000
   60   69   1.00000
   60   72  -0.50000
   61   49   0.25000
   61   55   1.00000
   61   56  -0.50000
   61   58   1.00000
   61   60  -0.50000
   61   62  -0.50000
   61   66  -0.50000
   61   70   0.25000
   62   52  -0.50000
   62   57   1.00000
   62   65   1.00000
   62   71  -0.50000
   63   53  -1.00000
   63   54  -0.50000
   63   61   1.00000
   63   68  -1.00000
   63   69  -0.50000
   63   72   1.00000
   64   49   0.25000
   64   50  -0.50000
   64   55   1.00000
   64   56   1.00000
   64   58  -0.50000
   64   59   1.00000
   64   60  -0.50000
   64   62  -0.50000
   64   63   1.00000
   64   66   0.25000
   64   67  -0.50000
   64   70  -0.50000
   65   53   0.50000
   65   54   0.25000
   65   61   1.00000
   65   68  -1.00000
   65   69  -0.50000
   65   72  -0.50000
   66   49  -0.12500
   66   50   0.25000
   66   55   1.00000
   66   56  -0.50000
   66   58  -0.50000
   66   59   1.00000
   66   60  -0.50000
   66   62   0.25000
   66   63  -0.50000
   66   66   0.25000
   66   67  -0.50000
   66   70   0.25000
   67   51   0.50000
   67   52   0.25000
   67   57   1.00000
   67   64  -1.00000
   67   65  -0.50000
   67   71  -0.50000
   68   53   1.00000
   68   54  -0.50000
   68   61   1.00000
   68   68   1.00000
   68   69  -0.50000
   68   72   1.00000
   69   49   0.25000
   69   50   0.50000
   69   55   1.00000
   69   56   1.00000
   69   58  -0.50000
   69   59  -1.00000
   69   60  -0.50000
   69   62  -0.50000
   69   63  -1.00000
   69   66   0.25000
   69   67   0.50000
   69   70  -0.50000
   70   53  -0.50000
   70   54   0.25000
   70   61   1.00000
   70   68   1.00000
   70   69  -0.50000
   70   72  -0.50000
   71   49  -0.12500
   71   50  -0.25000
   71   55   1.00000
   71   56  -0.50000
   71   58  -0.50000
   71   59  -1.00000
   71   60  -0.50000
   71   62   0.25000
   71   63   0.50000
   71   66   0.25000
   71   67   0.50000
   71   70   0.25000
   72   51  -0.50000
   72   52   0.25000
   72   57   1.00000
   72   64   1.00000
   72   65  -0.50000
   72   71  -0.50000
   73   75   1.00000
   73   76   1.00000
   73   80   1.00000
   73   84   1.00000
   74   74   0.50000
   74   77   1.00000
   74   79   0.50000
   74   82   1.00000
   75   75  -0.50000
   75   76   1.00000
   75   80  -0.50000
   75   84   1.00000
   76   74  -1.00000
   76   77   1.00000
   76   79  -1.00000
   76   82   1.00000
   77   73   0.50000
   77   78   1.00000
   77   81   1.00000
   77   83   0.50000
   78   75  -0.50000
   78   76   1.00000
   78   80   1.00000
   78   84  -0.50000
   79   73  -1.00000
   79   78   1.00000
   79   81   1.00000
   79   83  -1.00000
   80   73  -0.25000
   80   78   1.00000
   80   81  -0.50000
   80   83   0.50000
   81   74  -0.25000
   81   77   1.00000
   81   79   0.50000
   81   82  -0.50000
   82   75   0.25000
   82   76   1.00000
   82   80  -0.50000
   82   84  -0.50000
   83   73   0.50000
   83   78   1.00000
   83   81  -0.50000
   83   83  -1.00000
   84   74   0.50000
   84   77   1.00000
   84   79  -1.00000
   84   82  -0.50000
   85   89  -1.00000
   85   90  -0.50000
   85   97  -1.00000
   85  104  -1.00000
   85  105  -0.50000
   85  108  -1.00000
   86   85   0.25000
   86   86  -0.50000
   86   91   1.00000
   86   92   1.00000
   86   94   1.00000
   86   96   0.50000
   86   98   1.00000
   86  102   0.25000
   86  103  -0.50000
   86  106   0.50000
   87   89   0.50000
   87   90   0.25000
   87   97  -1.00000
   87  104  -1.00000
   87  105  -0.50000
   87  108   0.50000
   88   85  -0.12500
   88   86   0.25000
   88   91   1.00000
   88   92  -0.50000
   88   94   1.00000
   88   96   0.50000
   88   98  -0.50000
   88  102   0.25000
   88  103  -0.50000
   88  106  -0.25000
   89   87   0.50000
   89   88   0.25000
   89   93   1.00000
   89  101   1.00000
   89  107   0.50000
   90   89   1.00000
   90   90  -0.50000
   90   97  -1.00000
   90  104   1.00000
   90  105  -0.50000
   90  108  -1.00000
   91   85   0.25000
   91   86   0.50000
   91   91   1.00000
   91   92   1.00000
   91   94  -0.50000
   91   95   1.00000
   91   96   0.50000
   91   98  -0.50000
   91   99   1.00000
   91  102   0.25000
   91  103   0.50000
   91  106   0.50000
   92   89  -0.50000
   92   90   0.25000
   92   97  -1.00000
   92  104   1.00000
   92  105  -0.50000
   92  108   0.50000
   93   85  -0.12500
   93   86  -0.25000
   93   91   1.00000
   93   92  -0.50000
   93   94  -0.50000
   93   95   1.00000
   93   96   0.50000
   93   98   0.25000
   93   99  -0.50000
   93  102   0.25000
   93  103   0.50000
   93  106  -0.25000
   94   87  -0.50000
   94   88   0.25000
   94   93   1.00000
   94  100  -1.00000
   94  101  -0.50000
   94  107   0.50000
   95   90   1.00000
   95   97  -1.00000
   95  105   1.00000
   95  108  -1.00000
   96   85  -0.50000
   96   91   1.00000
   96   92   1.00000
   96   94  -0.50000
   96   95  -1.00000
   96   96   0.50000
   96   98  -0.50000
   96   99  -1.00000
   96  102  -0.50000
   96  106   0.50000
   97   90  -0.50000
   97   97  -1.00000
   97  105   1.00000
   97  108   0.50000
   98   85   0.25000
   98   91   1.00000
   98   92  -0.50000
   98   94  -0.50000
   98   95  -1.00000
   98   96   0.50000
   98   98   0.25000
   98   99   0.50000
   98  102  -0.50000
   98  106  -0.25000
   99   88  -0.50000
   99   93   1.00000
   99  100   1.00000
   99  101  -0.50000
   99  107   0.50000
  100   85  -0.50000
  100   86   1.00000
  100   91   1.00000
  100   92   1.00000
  100   94   1.00000
  100   96  -1.00000
  100   98   1.00000
  100  102  -0.50000
  100  103   1.00000
  100  106  -1.00000
  101   85   0.25000
  101   86  -0.50000
  101   91   1.00000
  101   92  -0.50000
  101   94   1.00000
  101   96  -1.00000
  101   98  -0.50000
  101  102  -0.50000
  101  103   1.00000
  101  106   0.50000
  102   87  -1.00000
  102   88  -0.50000
  102   93   1.00000
  102  101   1.00000
  102  107  -1.00000
  103   85  -0.50000
  103   86  -1.00000
  103   91   1.00000
  103   92   1.00000
  103   94  -0.50000
  103   95   1.00000
  103   96  -1.00000
  103   98  -0.50000
  103   99   1.00000
  103  102  -0.50000
  103  103  -1.00000
  103  106  -1.00000
  104   85   0.25000
  104   86   0.50000
  104   91   1.00000
  104   92  -0.50000
  104   94  -0.50000
  104   95   1.00000
  104   96  -1.00000
  104   98   0.25000
  104   99  -0.50000
  104  102  -0.50000
  104  103  -1.00000
  104  106   0.50000
  105   87   1.00000
  105   88  -0.50000
  105   93   1.00000
  105  100  -1.00000
  105  101  -0.50000
  105  107  -1.00000
  106   85   1.00000
  106   91   1.00000
  106   92   1.00000
  106   94  -0.50000
  106   95  -1.00000
  106   96  -1.00000
  106   98  -0.50000
  106   99  -1.00000
  106  102   1.00000
  106  106  -1.00000
  107   85  -0.50000
  107   91   1.00000
  107   92  -0.50000
  107   94  -0.50000
  107   95  -1.00000
  107   96  -1.00000
  107   98   0.25000
  107   99   0.50000
  107  102   1.00000
  107  106   0.50000
  108   88   1.00000
  108   93   1.00000
  108  100   1.00000
  108  101  -0.50000
  108  107  -1.00000
  109  109   0.25000
  109  110  -0.50000
  109  115   1.00000
  109  116   0.50000
  109  118   1.00000
  109  120   1.00000
  109  122   0.25000
  109  123  -0.50000
  109  126   1.00000
  109  130   0.50000
  110  111   1.00000
  110  112   0.50000
  110  117   1.00000
  110  124   1.00000
  110  125   0.50000
  110  131   1.00000
  111  109  -0.50000
  111  110   1.00000
  111  115   1.00000
  111  116  -1.00000
  111  118   1.00000
  111  120   1.00000
  111  122  -0.50000
  111  123   1.00000
  111  126   1.00000
  111  130  -1.00000
  112  109   0.25000
  112  110   0.50000
  112  115   1.00000
  112  116   0.50000
  112  118  -0.50000
  112  119   1.00000
  112  120   1.00000
  112  122   0.25000
  112  123   0.50000
  112  126  -0.50000
  112  127   1.00000
  112  130   0.50000
  113  111  -1.00000
  113  112   0.50000
  113  117   1.00000
  113  124  -1.00000
  113  125   0.50000
  113  131   1.00000
  114  109  -0.50000
  114  110  -1.00000
  114  115   1.00000
  114  116  -1.00000
  114  118  -0.50000
  114  119   1.00000
  114  120   1.00000
  114  122  -0.50000
  114  123  -1.00000
  114  126  -0.50000
  114  127   1.00000
  114  130  -1.00000
  115  109  -0.50000
  115  115   1.00000
  115  116   0.50000
  115  118  -0.50000
  115  119  -1.00000
  115  120   1.00000
  115  122  -0.50000
  115  126  -0.50000
  115  127  -1.00000
  115  130   0.50000
  116  112  -1.00000
  116  117   1.00000
  116  125  -1.00000
  116  131   1.00000
  117  109   1.00000
  117  115   1.00000
  117  116  -1.00000
  117  118  -0.50000
  117  119  -1.00000
  117  120   1.00000
  117  122   1.00000
  117  126  -0.50000
  117  127  -1.00000
  117  130  -1.00000
  118  113   0.50000
  118  114   0.25000
  118  121   1.00000
  118  129   1.00000
  118  132   0.50000
  119  109  -0.12500
  119  110   0.25000
  119  115   1.00000
  119  116   0.50000
  119  118   1.00000
  119  120  -0.50000
  119  122   0.25000
  119  123  -0.50000
  119  126  -0.50000
  119  130  -0.25000
  120  111  -0.50000
  120  112  -0.25000
  120  117   1.00000
  120  124   1.00000
  120  125   0.50000
  120  131  -0.50000
  121  113  -1.00000
  121  114  -0.50000
  121  121   1.00000
  121  129   1.00000
  121  132  -1.00000
  122  109   0.25000
  122  110  -0.50000
  122  115   1.00000
  122  116  -1.00000
  122  118   1.00000
  122  120  -0.50000
  122  122  -0.50000
  122  123   1.00000
  122  126  -0.50000
  122  130   0.50000
  123  113  -0.50000
  123  114   0.25000
  123  121   1.00000
  123  128  -1.00000
  123  129  -0.50000
  123  132   0.50000
  124  109  -0.12500
  124  110  -0.25000
  124  115   1.00000
  124  116   0.50000
  124  118  -0.50000
  124  119   1.00000
  124  120  -0.50000
  124  122   0.25000
  124  123   0.50000
  124  126   0.25000
  124  127  -0.50000
  124  130  -0.25000
  125  111   0.50000
  125  112  -0.25000
  125  117   1.00000
  125  124  -1.00000
  125  125   0.50000
  125  131  -0.50000
  126  113   1.00000
  126  114  -0.50000
  126  121   1.00000
  126  128  -1.00000
  126  129  -0.50000
  126  132  -1.00000
  127  109   0.25000
  127  110   0.50000
  127  115   1.00000
  127  116  -1.00000
  127  118  -0.50000
  127  119   1.00000
  127  120  -0.50000
  127  122  -0.50000
  127  123  -1.00000
  127  126   0.25000
  127  127  -0.50000
  127  130   0.50000
  128  114  -0.50000
  128  121   1.00000
  128  128   1.00000
  128  129  -0.50000
  128  132   0.50000
  129  109   0.25000
  129  115   1.00000
  129  116   0.50000
  129  118  -0.50000
  129  119  -1.00000
  129  120  -0.50000
  129  122  -0.50000
  129  126   0.25000
  129  127   0.50000
  129  130  -0.25000
  130  112   0.50000
  130  117   1.00000
  130  125  -1.00000
  130  131  -0.50000
  131  114   1.00000
  131  121   1.00000
  131  128   1.00000
  131  129  -0.50000
  131  132  -1.00000
  132  109  -0.50000
  132  115   1.00000
  132  116  -1.00000
  132  118  -0.50000
  132  119  -1.00000
  132  120  -0.50000
  132  122   1.00000
  132  126   0.25000
  132  127   0.50000
  132  130   0.50000
  133  133   1.00000
  133  139   1.00000
  133  140   1.00000
  133  142   1.00000
  133  144   1.00000
  133  146   1.00000
  133  150   1.00000
  133  154   1.00000
  134  133  -0.50000
  134  139   1.00000
  134  140  -0.50000
  134  142   1.00000
  134  144   1.00000
  134  146  -0.50000
  134  150   1.00000
  134  154  -0.50000
  135  136   1.00000
  135  141   1.00000
  135  149   1.00000
  135  155   1.00000
  136  133  -0.50000
  136  134   1.00000
  136  139   1.00000
  136  140   1.00000
  136  142  -0.50000
  136  143   1.00000
  136  144   1.00000
  136  146  -0.50000
  136  147   1.00000
  136  150  -0.50000
  136  151   1.00000
  136  154   1.00000
  137  133   0.25000
  137  134  -0.50000
  137  139   1.00000
  137  140  -0.50000
  137  142  -0.50000
  137  143   1.00000
  137  144   1.00000
  137  146   0.25000
  137  147  -0.50000
  137  150  -0.50000
  137  151   1.00000
  137  154  -0.50000
  138  135  -1.00000
  138  136  -0.50000
  138  141   1.00000
  138  148  -1.00000
  138  149  -0.50000
  138  155   1.00000
  139  133  -0.50000
  139  134  -1.00000
  139  139   1.00000
  139  140   1.00000
  139  142  -0.50000
  139  143  -1.00000
  139  144   1.00000
  139  146  -0.50000
  139  147  -1.00000
  139  150  -0.50000
  139  151  -1.00000
  139  154   1.00000
  140  133   0.25000
  140  134   0.50000
  140  139   1.00000
  140  140  -0.50000
  140  142  -0.50000
  140  143  -1.00000
  140  144   1.00000
  140  146   0.25000
  140  147   0.50000
  140  150  -0.50000
  140  151  -1.00000
  140  154  -0.50000
  141  135   1.00000
  141  136  -0.50000
  141  141   1.00000
  141  148   1.00000
  141  149  -0.50000
  141  155   1.00000
  142  138   1.00000
  142  145   1.00000
  142  153   1.00000
  142  156   1.00000
  143  133  -0.50000
  143  139   1.00000
  143  140   1.00000
  143  142   1.00000
  143  144  -0.50000
  143  146   1.00000
  143  150  -0.50000
  143  154  -0.50000
  144  138  -0.50000
  144  145   1.00000
  144  153   1.00000
  144  156  -0.50000
  145  133   0.25000
  145  139   1.00000
  145  140  -0.50000
  145  142   1.00000
  145  144  -0.50000
  145  146  -0.50000
  145  150  -0.50000
  145  154   0.25000
  146  136  -0.50000
  146  141   1.00000
  146  149   1.00000
  146  155  -0.50000
  147  137  -1.00000
  147  138  -0.50000
  147  145   1.00000
  147  152  -1.00000
  147  153  -0.50000
  147  156   1.00000
  148  133   0.25000
  148  134  -0.50000
  148  139   1.00000
  148  140   1.00000
  148  142  -0.50000
  148  143   1.00000
  148  144  -0.50000
  148  146  -0.50000
  148  147   1.00000
  148  150   0.25000
  148  151  -0.50000
  148  154  -0.50000
  149  137   0.50000
  149  138   0.25000
  149  145   1.00000
  149  152  -1.00000
  149  153  -0.50000
  149  156  -0.50000
  150  133  -0.12500
  150  134   0.25000
  150  139   1.00000
  150  140  -0.50000
  150  142  -0.50000
  150  143   1.00000
  150  144  -0.50000
  150  146   0.25000
  150  147  -0.50000
  150  150   0.25000
  150  151  -0.50000
  150  154   0.25000
  151  135   0.50000
  151  136   0.25000
  151  141   1.00000
  151  148  -1.00000
  151  149  -0.50000
  151  155  -0.50000
  152  137   1.00000
  152  138  -0.50000
  152  145   1.00000
  152  152   1.00000
  152  153  -0.50000
  152  156   1.00000
  153  133   0.25000
  153  134   0.50000
  153  139   1.00000
  153  140   1.00000
  153  142  -0.50000
  153  143  -1.00000
  153  144  -0.50000
  153  146  -0.50000
  153  147  -1.00000
  153  150   0.25000
  153  151   0.50000
  153  154  -0.50000
  154  137  -0.50000
  154  138   0.25000
  154  145   1.00000
  154  152   1.00000
  154  153  -0.50000
  154  156  -0.50000
  155  133  -0.12500
  155  134  -0.25000
  155  139   1.00000
  155  140  -0.50000
  155  142  -0.50000
  155  143  -1.00000
  155  144  -0.50000
  155  146   0.25000
  155  147   0.50000
  155  150   0.25000
  155  151   0.50000
  155  154   0.25000
  156  135  -0.50000
  156  136   0.25000
  156  141   1.00000
  156  148   1.00000
  156  149  -0.50000
  156  155  -0.50000

_iso_magneticmode_number    0


_iso_rotationalmode_number    0


_iso_occupancymode_number    0

_iso_strainmode_number    3

loop_
_iso_strainmode_ID
_iso_strainmode_label
_iso_strainmode_value
   1 Pmmm[0,0,0]GM1+(a)strain_1(a)  0.00000
   2 Pmmm[0,0,0]GM1+(a)strain_2(a)  0.00000
   3 Pmmm[0,0,0]GM1+(a)strain_3(a)  0.00000

loop_
_iso_strainmodenorm_ID
_iso_strainmodenorm_value
   1  1.00000
   2  1.00000
   3  1.00000

loop_
_iso_strain_ID
_iso_strain_label
_iso_strain_value
   1 E_1   0.00000
   2 E_2   0.00000
   3 E_3   0.00000
   4 E_4   0.00000
   5 E_5   0.00000
   6 E_6   0.00000

# matrix conversion: strains(parent) = matrix * modeamplitudes
# Rectangular matrix with 6 rows and _iso_strainmode_number columns

loop_
_iso_strainmodematrix_row
_iso_strainmodematrix_col
_iso_strainmodematrix_value
    1    1   1.00000
    2    2   1.00000
    3    3   1.00000

_iso_parentcell_length_a     3.82030
_iso_parentcell_length_b     3.88548
_iso_parentcell_length_c     11.68350
_iso_parentcell_angle_alpha  90.00000
_iso_parentcell_angle_beta   90.00000
_iso_parentcell_angle_gamma  90.00000
_iso_parentcell_volume       173.42635
_iso_parent-to-child.transform_Pp_abc -3a,3c,3b;3,0,0

# end of structure file
# end of cif
