# This file was generated by ISODISTORT, version 6.12.2
# Harold T. Stokes, Branton J. Campbell, David Tanner, Dorian M. Hatch
# Brigham Young University, Provo, Utah, USA
#
# Space Group:  64 Cmca       D2h-18
# Default space-group preferences: monoclinic axes a(b)c, monoclinic cell choice 1, orthorhombic axes abc, origin choice 2, hexagonal axes, SSG standard setting
# Lattice parameters: a= 5.35000, b= 13.14800, c= 5.39800, alpha= 90.00000, beta= 90.00000, gamma= 90.00000
# La1 8f (0,y,z), y= 0.36111, z= 0.00690
# Cu1 4a (0,0,0)
# O1 8f (0,y,z), y= 0.18307, z=-0.03560, occ= 0.94300
# O2 8e (1/4,y,1/4), y= 0.00697, occ= 0.99300
# O3 16g (x,y,z), x= 0.03000, y= 0.18200, z= 0.10000, occ= 0.02400
# O4 8e (1/4,y,1/4), y= 0.24300, occ= 0.01600
# Include strain, displacive ALL distortions
# k point: A, k11 (a,0,1/2), a=1/4
# IR: A1, k11t1
# P1 (a,0,0,0)  12 C2/m, basis={(0,0,2),(4,0,0),(0,1,0)}, origin=(3/2,0,0), s=8, i=16, k-active= (1/4,0,1/2)
# Order parameter values:
#  Cmca[1/4,0,1/2]A1(a,0,0,0) 12 C2/m s=8 i=16
#     [La1:f:dsp]A'_1(a):  0.00000
#     [La1:f:dsp]A'_2(a):  0.00000
#     [La1:f:dsp]A'_3(a):  0.00000
#     [La1:f:dsp]A'_4(a):  0.00000
#     [La1:f:dsp]A''_1(a):  0.00000
#     [La1:f:dsp]A''_2(a):  0.00000
#     [Cu1:a:dsp]Au(a):  0.00000
#     [Cu1:a:dsp]Bu_1(a):  0.00000
#     [Cu1:a:dsp]Bu_2(a):  0.00000
#     [O1:f:dsp]A'_1(a):  0.00000
#     [O1:f:dsp]A'_2(a):  0.00000
#     [O1:f:dsp]A'_3(a):  0.00000
#     [O1:f:dsp]A'_4(a):  0.00000
#     [O1:f:dsp]A''_1(a):  0.00000
#     [O1:f:dsp]A''_2(a):  0.00000
#     [O2:e:dsp]A_1(a):  0.00000
#     [O2:e:dsp]A_2(a):  0.00000
#     [O2:e:dsp]B_1(a):  0.00000
#     [O2:e:dsp]B_2(a):  0.00000
#     [O2:e:dsp]B_3(a):  0.00000
#     [O2:e:dsp]B_4(a):  0.00000
#     [O3:g:dsp]A_1(a):  0.00000
#     [O3:g:dsp]A_2(a):  0.00000
#     [O3:g:dsp]A_3(a):  0.00000
#     [O3:g:dsp]A_4(a):  0.00000
#     [O3:g:dsp]A_5(a):  0.00000
#     [O3:g:dsp]A_6(a):  0.00000
#     [O3:g:dsp]A_7(a):  0.00000
#     [O3:g:dsp]A_8(a):  0.00000
#     [O3:g:dsp]A_9(a):  0.00000
#     [O3:g:dsp]A_10(a):  0.00000
#     [O3:g:dsp]A_11(a):  0.00000
#     [O3:g:dsp]A_12(a):  0.00000
#     [O4:e:dsp]A_1(a):  0.00000
#     [O4:e:dsp]A_2(a):  0.00000
#     [O4:e:dsp]B_1(a):  0.00000
#     [O4:e:dsp]B_2(a):  0.00000
#     [O4:e:dsp]B_3(a):  0.00000
#     [O4:e:dsp]B_4(a):  0.00000
#  Cmca[0,0,0]GM1+(a) 64 Cmca s=1 i=1
#     [La1:f:dsp]A'_1(a):  0.00000
#     [La1:f:dsp]A'_2(a):  0.00000
#     [O1:f:dsp]A'_1(a):  0.00000
#     [O1:f:dsp]A'_2(a):  0.00000
#     [O2:e:dsp]A(a):  0.00000
#     [O3:g:dsp]A_1(a):  0.00000
#     [O3:g:dsp]A_2(a):  0.00000
#     [O3:g:dsp]A_3(a):  0.00000
#     [O4:e:dsp]A(a):  0.00000
#     strain_1(a):  0.00000
#     strain_2(a):  0.00000
#     strain_3(a):  0.00000
#  Cmca[0,0,0]GM3+(a) 12 C2/m s=1 i=2
#     [La1:f:dsp]A'_1(a):  0.00000
#     [La1:f:dsp]A'_2(a):  0.00000
#     [O1:f:dsp]A'_1(a):  0.00000
#     [O1:f:dsp]A'_2(a):  0.00000
#     [O2:e:dsp]B_1(a):  0.00000
#     [O2:e:dsp]B_2(a):  0.00000
#     [O3:g:dsp]A_1(a):  0.00000
#     [O3:g:dsp]A_2(a):  0.00000
#     [O3:g:dsp]A_3(a):  0.00000
#     [O4:e:dsp]B_1(a):  0.00000
#     [O4:e:dsp]B_2(a):  0.00000
#     strain(a):  0.00000
#  Cmca[1/2,0,0]SM1(0,a) 55 Pbam s=4 i=4
#     [La1:f:dsp]A'_1(a):  0.00000
#     [La1:f:dsp]A'_2(a):  0.00000
#     [La1:f:dsp]A''(a):  0.00000
#     [Cu1:a:dsp]Au(a):  0.00000
#     [O1:f:dsp]A'_1(a):  0.00000
#     [O1:f:dsp]A'_2(a):  0.00000
#     [O1:f:dsp]A''(a):  0.00000
#     [O2:e:dsp]A(a):  0.00000
#     [O2:e:dsp]B_1(a):  0.00000
#     [O2:e:dsp]B_2(a):  0.00000
#     [O3:g:dsp]A_1(a):  0.00000
#     [O3:g:dsp]A_2(a):  0.00000
#     [O3:g:dsp]A_3(a):  0.00000
#     [O3:g:dsp]A_4(a):  0.00000
#     [O3:g:dsp]A_5(a):  0.00000
#     [O3:g:dsp]A_6(a):  0.00000
#     [O4:e:dsp]A(a):  0.00000
#     [O4:e:dsp]B_1(a):  0.00000
#     [O4:e:dsp]B_2(a):  0.00000
#  Cmca[1/2,0,0]SM2(a,0) 58 Pnnm s=4 i=4
#     [La1:f:dsp]A'_1(a):  0.00000
#     [La1:f:dsp]A'_2(a):  0.00000
#     [La1:f:dsp]A''(a):  0.00000
#     [Cu1:a:dsp]Au(a):  0.00000
#     [O1:f:dsp]A'_1(a):  0.00000
#     [O1:f:dsp]A'_2(a):  0.00000
#     [O1:f:dsp]A''(a):  0.00000
#     [O2:e:dsp]A(a):  0.00000
#     [O2:e:dsp]B_1(a):  0.00000
#     [O2:e:dsp]B_2(a):  0.00000
#     [O3:g:dsp]A_1(a):  0.00000
#     [O3:g:dsp]A_2(a):  0.00000
#     [O3:g:dsp]A_3(a):  0.00000
#     [O3:g:dsp]A_4(a):  0.00000
#     [O3:g:dsp]A_5(a):  0.00000
#     [O3:g:dsp]A_6(a):  0.00000
#     [O4:e:dsp]A(a):  0.00000
#     [O4:e:dsp]B_1(a):  0.00000
#     [O4:e:dsp]B_2(a):  0.00000
#  Cmca[1,0,0]Y1+(a) 53 Pmna s=2 i=2
#     [La1:f:dsp]A'_1(a):  0.00000
#     [La1:f:dsp]A'_2(a):  0.00000
#     [O1:f:dsp]A'_1(a):  0.00000
#     [O1:f:dsp]A'_2(a):  0.00000
#     [O2:e:dsp]A(a):  0.00000
#     [O3:g:dsp]A_1(a):  0.00000
#     [O3:g:dsp]A_2(a):  0.00000
#     [O3:g:dsp]A_3(a):  0.00000
#     [O4:e:dsp]A(a):  0.00000
#  Cmca[1,0,0]Y3+(a) 55 Pbam s=2 i=2
#     [La1:f:dsp]A'_1(a):  0.00000
#     [La1:f:dsp]A'_2(a):  0.00000
#     [O1:f:dsp]A'_1(a):  0.00000
#     [O1:f:dsp]A'_2(a):  0.00000
#     [O2:e:dsp]B_1(a):  0.00000
#     [O2:e:dsp]B_2(a):  0.00000
#     [O3:g:dsp]A_1(a):  0.00000
#     [O3:g:dsp]A_2(a):  0.00000
#     [O3:g:dsp]A_3(a):  0.00000
#     [O4:e:dsp]B_1(a):  0.00000
#     [O4:e:dsp]B_2(a):  0.00000
#  Cmca[3/4,0,1/2]A1(0,0,a,0) 12 C2/m s=8 i=16
#     [La1:f:dsp]A'_1(a):  0.00000
#     [La1:f:dsp]A'_2(a):  0.00000
#     [La1:f:dsp]A'_3(a):  0.00000
#     [La1:f:dsp]A'_4(a):  0.00000
#     [La1:f:dsp]A''_1(a):  0.00000
#     [La1:f:dsp]A''_2(a):  0.00000
#     [Cu1:a:dsp]Au(a):  0.00000
#     [Cu1:a:dsp]Bu_1(a):  0.00000
#     [Cu1:a:dsp]Bu_2(a):  0.00000
#     [O1:f:dsp]A'_1(a):  0.00000
#     [O1:f:dsp]A'_2(a):  0.00000
#     [O1:f:dsp]A'_3(a):  0.00000
#     [O1:f:dsp]A'_4(a):  0.00000
#     [O1:f:dsp]A''_1(a):  0.00000
#     [O1:f:dsp]A''_2(a):  0.00000
#     [O2:e:dsp]A_1(a):  0.00000
#     [O2:e:dsp]A_2(a):  0.00000
#     [O2:e:dsp]B_1(a):  0.00000
#     [O2:e:dsp]B_2(a):  0.00000
#     [O2:e:dsp]B_3(a):  0.00000
#     [O2:e:dsp]B_4(a):  0.00000
#     [O3:g:dsp]A_1(a):  0.00000
#     [O3:g:dsp]A_2(a):  0.00000
#     [O3:g:dsp]A_3(a):  0.00000
#     [O3:g:dsp]A_4(a):  0.00000
#     [O3:g:dsp]A_5(a):  0.00000
#     [O3:g:dsp]A_6(a):  0.00000
#     [O3:g:dsp]A_7(a):  0.00000
#     [O3:g:dsp]A_8(a):  0.00000
#     [O3:g:dsp]A_9(a):  0.00000
#     [O3:g:dsp]A_10(a):  0.00000
#     [O3:g:dsp]A_11(a):  0.00000
#     [O3:g:dsp]A_12(a):  0.00000
#     [O4:e:dsp]A_1(a):  0.00000
#     [O4:e:dsp]A_2(a):  0.00000
#     [O4:e:dsp]B_1(a):  0.00000
#     [O4:e:dsp]B_2(a):  0.00000
#     [O4:e:dsp]B_3(a):  0.00000
#     [O4:e:dsp]B_4(a):  0.00000

data_isodistort-output

_cell_length_a     10.79600
_cell_length_b     21.40000
_cell_length_c     13.14800
_cell_angle_alpha  90.00000
_cell_angle_beta   90.00000
_cell_angle_gamma  90.00000
_cell_volume       3037.64029

_symmetry_space_group_name_H-M "C 1 2/m 1"
_symmetry_Int_Tables_number 12
_space_group.reference_setting '012:-C 2y'
_space_group.transform_Pp_abc a,b,c;0,0,0

loop_
_space_group_symop_id
_space_group_symop_operation_xyz
1 x,y,z
2 -x,y,-z
3 -x,-y,-z
4 x,-y,z
5 x+1/2,y+1/2,z
6 -x+1/2,y+1/2,-z
7 -x+1/2,-y+1/2,-z
8 x+1/2,-y+1/2,z

loop_
_atom_type_symbol
La3+  
Cu2+  
O2-   

loop_
_atom_site_label
_atom_site_type_symbol
_atom_site_symmetry_multiplicity
_atom_site_Wyckoff_symbol
_atom_site_fract_x
_atom_site_fract_y
_atom_site_fract_z
_atom_site_occupancy
_atom_site_fract_symmform
La1_1  La3+   8 j  0.50345  0.12500  0.36111  1.00000 Dx,Dy,Dz 
La1_2  La3+   8 j  0.50345  0.25000  0.86111  1.00000 Dx,Dy,Dz 
La1_3  La3+   8 j  0.50345  0.37500  0.36111  1.00000 Dx,Dy,Dz 
La1_4  La3+   4 i  0.00345  0.00000  0.86111  1.00000 Dx,0,Dz  
La1_5  La3+   4 i  0.50345  0.00000  0.86111  1.00000 Dx,0,Dz  
La1_6  La3+   8 j  0.74655  0.25000  0.36111  1.00000 Dx,Dy,Dz 
La1_7  La3+   8 j  0.74655  0.37500  0.86111  1.00000 Dx,Dy,Dz 
La1_8  La3+   4 i  0.24655  0.00000  0.36111  1.00000 Dx,0,Dz  
La1_9  La3+   8 j  0.74655  0.12500  0.86111  1.00000 Dx,Dy,Dz 
La1_10 La3+   4 i  0.74655  0.00000  0.36111  1.00000 Dx,0,Dz  
Cu1_1  Cu2+   4 g  0.00000  0.37500  0.00000  1.00000 0,Dy,0   
Cu1_2  Cu2+   4 h  0.00000  0.25000  0.50000  1.00000 0,Dy,0   
Cu1_3  Cu2+   4 g  0.00000  0.12500  0.00000  1.00000 0,Dy,0   
Cu1_4  Cu2+   2 c  0.00000  0.00000  0.50000  1.00000 0,0,0    
Cu1_5  Cu2+   2 d  0.00000  0.50000  0.50000  1.00000 0,0,0    
Cu1_6  Cu2+   4 e  0.25000  0.25000  0.00000  1.00000 0,0,0    
Cu1_7  Cu2+   8 j  0.75000  0.37500  0.50000  1.00000 Dx,Dy,Dz 
Cu1_8  Cu2+   4 i  0.75000  0.00000  0.00000  1.00000 Dx,0,Dz  
O1_1   O2-    8 j  0.48220  0.12500  0.18307  0.94300 Dx,Dy,Dz 
O1_2   O2-    8 j  0.48220  0.25000  0.68307  0.94300 Dx,Dy,Dz 
O1_3   O2-    8 j  0.48220  0.37500  0.18307  0.94300 Dx,Dy,Dz 
O1_4   O2-    4 i -0.01780  0.00000  0.68307  0.94300 Dx,0,Dz  
O1_5   O2-    4 i  0.48220  0.00000  0.68307  0.94300 Dx,0,Dz  
O1_6   O2-    8 j  0.76780  0.25000  0.18307  0.94300 Dx,Dy,Dz 
O1_7   O2-    8 j  0.76780  0.37500  0.68307  0.94300 Dx,Dy,Dz 
O1_8   O2-    4 i  0.26780  0.00000  0.18307  0.94300 Dx,0,Dz  
O1_9   O2-    8 j  0.76780  0.12500  0.68307  0.94300 Dx,Dy,Dz 
O1_10  O2-    4 i  0.76780  0.00000  0.18307  0.94300 Dx,0,Dz  
O2_1   O2-    8 j  0.62500  0.18750  0.00697  0.99300 Dx,Dy,Dz 
O2_2   O2-    8 j  0.62500  0.31250  0.50697  0.99300 Dx,Dy,Dz 
O2_3   O2-    8 j  0.62500  0.43750  0.00697  0.99300 Dx,Dy,Dz 
O2_4   O2-    8 j  0.12500  0.06250  0.50697  0.99300 Dx,Dy,Dz 
O2_5   O2-    8 j  0.12500  0.18750  0.00697  0.99300 Dx,Dy,Dz 
O2_6   O2-    8 j  0.12500  0.31250  0.50697  0.99300 Dx,Dy,Dz 
O2_7   O2-    8 j  0.12500  0.43750  0.00697  0.99300 Dx,Dy,Dz 
O2_8   O2-    8 j  0.62500  0.06250  0.50697  0.99300 Dx,Dy,Dz 
O3_1   O2-    8 j  0.55000  0.13250  0.18200  0.02400 Dx,Dy,Dz 
O3_2   O2-    8 j  0.55000  0.25750  0.68200  0.02400 Dx,Dy,Dz 
O3_3   O2-    8 j  0.55000  0.38250  0.18200  0.02400 Dx,Dy,Dz 
O3_4   O2-    8 j  0.05000  0.00750  0.68200  0.02400 Dx,Dy,Dz 
O3_5   O2-    8 j  0.05000  0.13250  0.18200  0.02400 Dx,Dy,Dz 
O3_6   O2-    8 j  0.05000  0.25750  0.68200  0.02400 Dx,Dy,Dz 
O3_7   O2-    8 j  0.05000  0.38250  0.18200  0.02400 Dx,Dy,Dz 
O3_8   O2-    8 j  0.55000  0.00750  0.68200  0.02400 Dx,Dy,Dz 
O3_9   O2-    8 j  0.70000  0.24250  0.18200  0.02400 Dx,Dy,Dz 
O3_10  O2-    8 j  0.70000  0.36750  0.68200  0.02400 Dx,Dy,Dz 
O3_11  O2-    8 j  0.70000  0.49250  0.18200  0.02400 Dx,Dy,Dz 
O3_12  O2-    8 j  0.20000  0.11750  0.68200  0.02400 Dx,Dy,Dz 
O3_13  O2-    8 j  0.20000  0.24250  0.18200  0.02400 Dx,Dy,Dz 
O3_14  O2-    8 j  0.20000  0.36750  0.68200  0.02400 Dx,Dy,Dz 
O3_15  O2-    8 j  0.20000  0.49250  0.18200  0.02400 Dx,Dy,Dz 
O3_16  O2-    8 j  0.70000  0.11750  0.68200  0.02400 Dx,Dy,Dz 
O4_1   O2-    8 j  0.62500  0.18750  0.24300  0.01600 Dx,Dy,Dz 
O4_2   O2-    8 j  0.62500  0.31250  0.74300  0.01600 Dx,Dy,Dz 
O4_3   O2-    8 j  0.62500  0.43750  0.24300  0.01600 Dx,Dy,Dz 
O4_4   O2-    8 j  0.12500  0.06250  0.74300  0.01600 Dx,Dy,Dz 
O4_5   O2-    8 j  0.12500  0.18750  0.24300  0.01600 Dx,Dy,Dz 
O4_6   O2-    8 j  0.12500  0.31250  0.74300  0.01600 Dx,Dy,Dz 
O4_7   O2-    8 j  0.12500  0.43750  0.24300  0.01600 Dx,Dy,Dz 
O4_8   O2-    8 j  0.62500  0.06250  0.74300  0.01600 Dx,Dy,Dz 

_iso_displacivemode_number  156

loop_
_iso_displacivemode_ID
_iso_displacivemode_label
_iso_displacivemode_value
   1 Cmca[1/4,0,1/2]A1(a,0,0,0)[La1:f:dsp]A'_1(a)  0.00000
   2 Cmca[1/4,0,1/2]A1(a,0,0,0)[La1:f:dsp]A'_2(a)  0.00000
   3 Cmca[1/4,0,1/2]A1(a,0,0,0)[La1:f:dsp]A'_3(a)  0.00000
   4 Cmca[1/4,0,1/2]A1(a,0,0,0)[La1:f:dsp]A'_4(a)  0.00000
   5 Cmca[1/4,0,1/2]A1(a,0,0,0)[La1:f:dsp]A''_1(a)  0.00000
   6 Cmca[1/4,0,1/2]A1(a,0,0,0)[La1:f:dsp]A''_2(a)  0.00000
   7 Cmca[0,0,0]GM1+(a)[La1:f:dsp]A'_1(a)  0.00000
   8 Cmca[0,0,0]GM1+(a)[La1:f:dsp]A'_2(a)  0.00000
   9 Cmca[0,0,0]GM3+(a)[La1:f:dsp]A'_1(a)  0.00000
  10 Cmca[0,0,0]GM3+(a)[La1:f:dsp]A'_2(a)  0.00000
  11 Cmca[1/2,0,0]SM1(0,a)[La1:f:dsp]A'_1(a)  0.00000
  12 Cmca[1/2,0,0]SM1(0,a)[La1:f:dsp]A'_2(a)  0.00000
  13 Cmca[1/2,0,0]SM1(0,a)[La1:f:dsp]A''(a)  0.00000
  14 Cmca[1/2,0,0]SM2(a,0)[La1:f:dsp]A'_1(a)  0.00000
  15 Cmca[1/2,0,0]SM2(a,0)[La1:f:dsp]A'_2(a)  0.00000
  16 Cmca[1/2,0,0]SM2(a,0)[La1:f:dsp]A''(a)  0.00000
  17 Cmca[1,0,0]Y1+(a)[La1:f:dsp]A'_1(a)  0.00000
  18 Cmca[1,0,0]Y1+(a)[La1:f:dsp]A'_2(a)  0.00000
  19 Cmca[1,0,0]Y3+(a)[La1:f:dsp]A'_1(a)  0.00000
  20 Cmca[1,0,0]Y3+(a)[La1:f:dsp]A'_2(a)  0.00000
  21 Cmca[3/4,0,1/2]A1(0,0,a,0)[La1:f:dsp]A'_1(a)  0.00000
  22 Cmca[3/4,0,1/2]A1(0,0,a,0)[La1:f:dsp]A'_2(a)  0.00000
  23 Cmca[3/4,0,1/2]A1(0,0,a,0)[La1:f:dsp]A'_3(a)  0.00000
  24 Cmca[3/4,0,1/2]A1(0,0,a,0)[La1:f:dsp]A'_4(a)  0.00000
  25 Cmca[3/4,0,1/2]A1(0,0,a,0)[La1:f:dsp]A''_1(a)  0.00000
  26 Cmca[3/4,0,1/2]A1(0,0,a,0)[La1:f:dsp]A''_2(a)  0.00000
  27 Cmca[1/4,0,1/2]A1(a,0,0,0)[Cu1:a:dsp]Au(a)  0.00000
  28 Cmca[1/4,0,1/2]A1(a,0,0,0)[Cu1:a:dsp]Bu_1(a)  0.00000
  29 Cmca[1/4,0,1/2]A1(a,0,0,0)[Cu1:a:dsp]Bu_2(a)  0.00000
  30 Cmca[1/2,0,0]SM1(0,a)[Cu1:a:dsp]Au(a)  0.00000
  31 Cmca[1/2,0,0]SM2(a,0)[Cu1:a:dsp]Au(a)  0.00000
  32 Cmca[3/4,0,1/2]A1(0,0,a,0)[Cu1:a:dsp]Au(a)  0.00000
  33 Cmca[3/4,0,1/2]A1(0,0,a,0)[Cu1:a:dsp]Bu_1(a)  0.00000
  34 Cmca[3/4,0,1/2]A1(0,0,a,0)[Cu1:a:dsp]Bu_2(a)  0.00000
  35 Cmca[1/4,0,1/2]A1(a,0,0,0)[O1:f:dsp]A'_1(a)  0.00000
  36 Cmca[1/4,0,1/2]A1(a,0,0,0)[O1:f:dsp]A'_2(a)  0.00000
  37 Cmca[1/4,0,1/2]A1(a,0,0,0)[O1:f:dsp]A'_3(a)  0.00000
  38 Cmca[1/4,0,1/2]A1(a,0,0,0)[O1:f:dsp]A'_4(a)  0.00000
  39 Cmca[1/4,0,1/2]A1(a,0,0,0)[O1:f:dsp]A''_1(a)  0.00000
  40 Cmca[1/4,0,1/2]A1(a,0,0,0)[O1:f:dsp]A''_2(a)  0.00000
  41 Cmca[0,0,0]GM1+(a)[O1:f:dsp]A'_1(a)  0.00000
  42 Cmca[0,0,0]GM1+(a)[O1:f:dsp]A'_2(a)  0.00000
  43 Cmca[0,0,0]GM3+(a)[O1:f:dsp]A'_1(a)  0.00000
  44 Cmca[0,0,0]GM3+(a)[O1:f:dsp]A'_2(a)  0.00000
  45 Cmca[1/2,0,0]SM1(0,a)[O1:f:dsp]A'_1(a)  0.00000
  46 Cmca[1/2,0,0]SM1(0,a)[O1:f:dsp]A'_2(a)  0.00000
  47 Cmca[1/2,0,0]SM1(0,a)[O1:f:dsp]A''(a)  0.00000
  48 Cmca[1/2,0,0]SM2(a,0)[O1:f:dsp]A'_1(a)  0.00000
  49 Cmca[1/2,0,0]SM2(a,0)[O1:f:dsp]A'_2(a)  0.00000
  50 Cmca[1/2,0,0]SM2(a,0)[O1:f:dsp]A''(a)  0.00000
  51 Cmca[1,0,0]Y1+(a)[O1:f:dsp]A'_1(a)  0.00000
  52 Cmca[1,0,0]Y1+(a)[O1:f:dsp]A'_2(a)  0.00000
  53 Cmca[1,0,0]Y3+(a)[O1:f:dsp]A'_1(a)  0.00000
  54 Cmca[1,0,0]Y3+(a)[O1:f:dsp]A'_2(a)  0.00000
  55 Cmca[3/4,0,1/2]A1(0,0,a,0)[O1:f:dsp]A'_1(a)  0.00000
  56 Cmca[3/4,0,1/2]A1(0,0,a,0)[O1:f:dsp]A'_2(a)  0.00000
  57 Cmca[3/4,0,1/2]A1(0,0,a,0)[O1:f:dsp]A'_3(a)  0.00000
  58 Cmca[3/4,0,1/2]A1(0,0,a,0)[O1:f:dsp]A'_4(a)  0.00000
  59 Cmca[3/4,0,1/2]A1(0,0,a,0)[O1:f:dsp]A''_1(a)  0.00000
  60 Cmca[3/4,0,1/2]A1(0,0,a,0)[O1:f:dsp]A''_2(a)  0.00000
  61 Cmca[1/4,0,1/2]A1(a,0,0,0)[O2:e:dsp]A_1(a)  0.00000
  62 Cmca[1/4,0,1/2]A1(a,0,0,0)[O2:e:dsp]A_2(a)  0.00000
  63 Cmca[1/4,0,1/2]A1(a,0,0,0)[O2:e:dsp]B_1(a)  0.00000
  64 Cmca[1/4,0,1/2]A1(a,0,0,0)[O2:e:dsp]B_2(a)  0.00000
  65 Cmca[1/4,0,1/2]A1(a,0,0,0)[O2:e:dsp]B_3(a)  0.00000
  66 Cmca[1/4,0,1/2]A1(a,0,0,0)[O2:e:dsp]B_4(a)  0.00000
  67 Cmca[0,0,0]GM1+(a)[O2:e:dsp]A(a)  0.00000
  68 Cmca[0,0,0]GM3+(a)[O2:e:dsp]B_1(a)  0.00000
  69 Cmca[0,0,0]GM3+(a)[O2:e:dsp]B_2(a)  0.00000
  70 Cmca[1/2,0,0]SM1(0,a)[O2:e:dsp]A(a)  0.00000
  71 Cmca[1/2,0,0]SM1(0,a)[O2:e:dsp]B_1(a)  0.00000
  72 Cmca[1/2,0,0]SM1(0,a)[O2:e:dsp]B_2(a)  0.00000
  73 Cmca[1/2,0,0]SM2(a,0)[O2:e:dsp]A(a)  0.00000
  74 Cmca[1/2,0,0]SM2(a,0)[O2:e:dsp]B_1(a)  0.00000
  75 Cmca[1/2,0,0]SM2(a,0)[O2:e:dsp]B_2(a)  0.00000
  76 Cmca[1,0,0]Y1+(a)[O2:e:dsp]A(a)  0.00000
  77 Cmca[1,0,0]Y3+(a)[O2:e:dsp]B_1(a)  0.00000
  78 Cmca[1,0,0]Y3+(a)[O2:e:dsp]B_2(a)  0.00000
  79 Cmca[3/4,0,1/2]A1(0,0,a,0)[O2:e:dsp]A_1(a)  0.00000
  80 Cmca[3/4,0,1/2]A1(0,0,a,0)[O2:e:dsp]A_2(a)  0.00000
  81 Cmca[3/4,0,1/2]A1(0,0,a,0)[O2:e:dsp]B_1(a)  0.00000
  82 Cmca[3/4,0,1/2]A1(0,0,a,0)[O2:e:dsp]B_2(a)  0.00000
  83 Cmca[3/4,0,1/2]A1(0,0,a,0)[O2:e:dsp]B_3(a)  0.00000
  84 Cmca[3/4,0,1/2]A1(0,0,a,0)[O2:e:dsp]B_4(a)  0.00000
  85 Cmca[1/4,0,1/2]A1(a,0,0,0)[O3:g:dsp]A_1(a)  0.00000
  86 Cmca[1/4,0,1/2]A1(a,0,0,0)[O3:g:dsp]A_2(a)  0.00000
  87 Cmca[1/4,0,1/2]A1(a,0,0,0)[O3:g:dsp]A_3(a)  0.00000
  88 Cmca[1/4,0,1/2]A1(a,0,0,0)[O3:g:dsp]A_4(a)  0.00000
  89 Cmca[1/4,0,1/2]A1(a,0,0,0)[O3:g:dsp]A_5(a)  0.00000
  90 Cmca[1/4,0,1/2]A1(a,0,0,0)[O3:g:dsp]A_6(a)  0.00000
  91 Cmca[1/4,0,1/2]A1(a,0,0,0)[O3:g:dsp]A_7(a)  0.00000
  92 Cmca[1/4,0,1/2]A1(a,0,0,0)[O3:g:dsp]A_8(a)  0.00000
  93 Cmca[1/4,0,1/2]A1(a,0,0,0)[O3:g:dsp]A_9(a)  0.00000
  94 Cmca[1/4,0,1/2]A1(a,0,0,0)[O3:g:dsp]A_10(a)  0.00000
  95 Cmca[1/4,0,1/2]A1(a,0,0,0)[O3:g:dsp]A_11(a)  0.00000
  96 Cmca[1/4,0,1/2]A1(a,0,0,0)[O3:g:dsp]A_12(a)  0.00000
  97 Cmca[0,0,0]GM1+(a)[O3:g:dsp]A_1(a)  0.00000
  98 Cmca[0,0,0]GM1+(a)[O3:g:dsp]A_2(a)  0.00000
  99 Cmca[0,0,0]GM1+(a)[O3:g:dsp]A_3(a)  0.00000
 100 Cmca[0,0,0]GM3+(a)[O3:g:dsp]A_1(a)  0.00000
 101 Cmca[0,0,0]GM3+(a)[O3:g:dsp]A_2(a)  0.00000
 102 Cmca[0,0,0]GM3+(a)[O3:g:dsp]A_3(a)  0.00000
 103 Cmca[1/2,0,0]SM1(0,a)[O3:g:dsp]A_1(a)  0.00000
 104 Cmca[1/2,0,0]SM1(0,a)[O3:g:dsp]A_2(a)  0.00000
 105 Cmca[1/2,0,0]SM1(0,a)[O3:g:dsp]A_3(a)  0.00000
 106 Cmca[1/2,0,0]SM1(0,a)[O3:g:dsp]A_4(a)  0.00000
 107 Cmca[1/2,0,0]SM1(0,a)[O3:g:dsp]A_5(a)  0.00000
 108 Cmca[1/2,0,0]SM1(0,a)[O3:g:dsp]A_6(a)  0.00000
 109 Cmca[1/2,0,0]SM2(a,0)[O3:g:dsp]A_1(a)  0.00000
 110 Cmca[1/2,0,0]SM2(a,0)[O3:g:dsp]A_2(a)  0.00000
 111 Cmca[1/2,0,0]SM2(a,0)[O3:g:dsp]A_3(a)  0.00000
 112 Cmca[1/2,0,0]SM2(a,0)[O3:g:dsp]A_4(a)  0.00000
 113 Cmca[1/2,0,0]SM2(a,0)[O3:g:dsp]A_5(a)  0.00000
 114 Cmca[1/2,0,0]SM2(a,0)[O3:g:dsp]A_6(a)  0.00000
 115 Cmca[1,0,0]Y1+(a)[O3:g:dsp]A_1(a)  0.00000
 116 Cmca[1,0,0]Y1+(a)[O3:g:dsp]A_2(a)  0.00000
 117 Cmca[1,0,0]Y1+(a)[O3:g:dsp]A_3(a)  0.00000
 118 Cmca[1,0,0]Y3+(a)[O3:g:dsp]A_1(a)  0.00000
 119 Cmca[1,0,0]Y3+(a)[O3:g:dsp]A_2(a)  0.00000
 120 Cmca[1,0,0]Y3+(a)[O3:g:dsp]A_3(a)  0.00000
 121 Cmca[3/4,0,1/2]A1(0,0,a,0)[O3:g:dsp]A_1(a)  0.00000
 122 Cmca[3/4,0,1/2]A1(0,0,a,0)[O3:g:dsp]A_2(a)  0.00000
 123 Cmca[3/4,0,1/2]A1(0,0,a,0)[O3:g:dsp]A_3(a)  0.00000
 124 Cmca[3/4,0,1/2]A1(0,0,a,0)[O3:g:dsp]A_4(a)  0.00000
 125 Cmca[3/4,0,1/2]A1(0,0,a,0)[O3:g:dsp]A_5(a)  0.00000
 126 Cmca[3/4,0,1/2]A1(0,0,a,0)[O3:g:dsp]A_6(a)  0.00000
 127 Cmca[3/4,0,1/2]A1(0,0,a,0)[O3:g:dsp]A_7(a)  0.00000
 128 Cmca[3/4,0,1/2]A1(0,0,a,0)[O3:g:dsp]A_8(a)  0.00000
 129 Cmca[3/4,0,1/2]A1(0,0,a,0)[O3:g:dsp]A_9(a)  0.00000
 130 Cmca[3/4,0,1/2]A1(0,0,a,0)[O3:g:dsp]A_10(a)  0.00000
 131 Cmca[3/4,0,1/2]A1(0,0,a,0)[O3:g:dsp]A_11(a)  0.00000
 132 Cmca[3/4,0,1/2]A1(0,0,a,0)[O3:g:dsp]A_12(a)  0.00000
 133 Cmca[1/4,0,1/2]A1(a,0,0,0)[O4:e:dsp]A_1(a)  0.00000
 134 Cmca[1/4,0,1/2]A1(a,0,0,0)[O4:e:dsp]A_2(a)  0.00000
 135 Cmca[1/4,0,1/2]A1(a,0,0,0)[O4:e:dsp]B_1(a)  0.00000
 136 Cmca[1/4,0,1/2]A1(a,0,0,0)[O4:e:dsp]B_2(a)  0.00000
 137 Cmca[1/4,0,1/2]A1(a,0,0,0)[O4:e:dsp]B_3(a)  0.00000
 138 Cmca[1/4,0,1/2]A1(a,0,0,0)[O4:e:dsp]B_4(a)  0.00000
 139 Cmca[0,0,0]GM1+(a)[O4:e:dsp]A(a)  0.00000
 140 Cmca[0,0,0]GM3+(a)[O4:e:dsp]B_1(a)  0.00000
 141 Cmca[0,0,0]GM3+(a)[O4:e:dsp]B_2(a)  0.00000
 142 Cmca[1/2,0,0]SM1(0,a)[O4:e:dsp]A(a)  0.00000
 143 Cmca[1/2,0,0]SM1(0,a)[O4:e:dsp]B_1(a)  0.00000
 144 Cmca[1/2,0,0]SM1(0,a)[O4:e:dsp]B_2(a)  0.00000
 145 Cmca[1/2,0,0]SM2(a,0)[O4:e:dsp]A(a)  0.00000
 146 Cmca[1/2,0,0]SM2(a,0)[O4:e:dsp]B_1(a)  0.00000
 147 Cmca[1/2,0,0]SM2(a,0)[O4:e:dsp]B_2(a)  0.00000
 148 Cmca[1,0,0]Y1+(a)[O4:e:dsp]A(a)  0.00000
 149 Cmca[1,0,0]Y3+(a)[O4:e:dsp]B_1(a)  0.00000
 150 Cmca[1,0,0]Y3+(a)[O4:e:dsp]B_2(a)  0.00000
 151 Cmca[3/4,0,1/2]A1(0,0,a,0)[O4:e:dsp]A_1(a)  0.00000
 152 Cmca[3/4,0,1/2]A1(0,0,a,0)[O4:e:dsp]A_2(a)  0.00000
 153 Cmca[3/4,0,1/2]A1(0,0,a,0)[O4:e:dsp]B_1(a)  0.00000
 154 Cmca[3/4,0,1/2]A1(0,0,a,0)[O4:e:dsp]B_2(a)  0.00000
 155 Cmca[3/4,0,1/2]A1(0,0,a,0)[O4:e:dsp]B_3(a)  0.00000
 156 Cmca[3/4,0,1/2]A1(0,0,a,0)[O4:e:dsp]B_4(a)  0.00000

loop_
_iso_displacivemodenorm_ID
_iso_displacivemodenorm_value
   1  0.02689
   2  0.02689
   3  0.03275
   4  0.03275
   5  0.01652
   6  0.01652
   7  0.01345
   8  0.01637
   9  0.01345
  10  0.01637
  11  0.01901
  12  0.02316
  13  0.01168
  14  0.01901
  15  0.02316
  16  0.01168
  17  0.01345
  18  0.01637
  19  0.01345
  20  0.01637
  21  0.02689
  22  0.02689
  23  0.03275
  24  0.03275
  25  0.01652
  26  0.01652
  27  0.02336
  28  0.03803
  29  0.04631
  30  0.01652
  31  0.01652
  32  0.02336
  33  0.03803
  34  0.04631
  35  0.02689
  36  0.02689
  37  0.03275
  38  0.03275
  39  0.01652
  40  0.01652
  41  0.01345
  42  0.01637
  43  0.01345
  44  0.01637
  45  0.01901
  46  0.02316
  47  0.01168
  48  0.01901
  49  0.02316
  50  0.01168
  51  0.01345
  52  0.01637
  53  0.01345
  54  0.01637
  55  0.02689
  56  0.02689
  57  0.03275
  58  0.03275
  59  0.01652
  60  0.01652
  61  0.01901
  62  0.01901
  63  0.01168
  64  0.01168
  65  0.02316
  66  0.02316
  67  0.01345
  68  0.00826
  69  0.01637
  70  0.01345
  71  0.00826
  72  0.01637
  73  0.01345
  74  0.00826
  75  0.01637
  76  0.01345
  77  0.00826
  78  0.01637
  79  0.01901
  80  0.01901
  81  0.01168
  82  0.01168
  83  0.02316
  84  0.02316
  85  0.01168
  86  0.01168
  87  0.01168
  88  0.01168
  89  0.01901
  90  0.01901
  91  0.01901
  92  0.01901
  93  0.02316
  94  0.02316
  95  0.02316
  96  0.02316
  97  0.00584
  98  0.00951
  99  0.01158
 100  0.00584
 101  0.00951
 102  0.01158
 103  0.00826
 104  0.00826
 105  0.01345
 106  0.01345
 107  0.01637
 108  0.01637
 109  0.00826
 110  0.00826
 111  0.01345
 112  0.01345
 113  0.01637
 114  0.01637
 115  0.00584
 116  0.00951
 117  0.01158
 118  0.00584
 119  0.00951
 120  0.01158
 121  0.01168
 122  0.01168
 123  0.01168
 124  0.01168
 125  0.01901
 126  0.01901
 127  0.01901
 128  0.01901
 129  0.02316
 130  0.02316
 131  0.02316
 132  0.02316
 133  0.01901
 134  0.01901
 135  0.01168
 136  0.01168
 137  0.02316
 138  0.02316
 139  0.01345
 140  0.00826
 141  0.01637
 142  0.01345
 143  0.00826
 144  0.01637
 145  0.01345
 146  0.00826
 147  0.01637
 148  0.01345
 149  0.00826
 150  0.01637
 151  0.01901
 152  0.01901
 153  0.01168
 154  0.01168
 155  0.02316
 156  0.02316

loop_
_iso_deltacoordinate_ID
_iso_deltacoordinate_label
_iso_deltacoordinate_value
   1 La1_1_dx   0.00000
   2 La1_1_dy   0.00000
   3 La1_1_dz   0.00000
   4 La1_2_dx   0.00000
   5 La1_2_dy   0.00000
   6 La1_2_dz   0.00000
   7 La1_3_dx   0.00000
   8 La1_3_dy   0.00000
   9 La1_3_dz   0.00000
  10 La1_4_dx   0.00000
  11 La1_4_dz   0.00000
  12 La1_5_dx   0.00000
  13 La1_5_dz   0.00000
  14 La1_6_dx   0.00000
  15 La1_6_dy   0.00000
  16 La1_6_dz   0.00000
  17 La1_7_dx   0.00000
  18 La1_7_dy   0.00000
  19 La1_7_dz   0.00000
  20 La1_8_dx   0.00000
  21 La1_8_dz   0.00000
  22 La1_9_dx   0.00000
  23 La1_9_dy   0.00000
  24 La1_9_dz   0.00000
  25 La1_10_dx   0.00000
  26 La1_10_dz   0.00000
  27 Cu1_1_dy   0.00000
  28 Cu1_2_dy   0.00000
  29 Cu1_3_dy   0.00000
  30 Cu1_7_dx   0.00000
  31 Cu1_7_dy   0.00000
  32 Cu1_7_dz   0.00000
  33 Cu1_8_dx   0.00000
  34 Cu1_8_dz   0.00000
  35 O1_1_dx   0.00000
  36 O1_1_dy   0.00000
  37 O1_1_dz   0.00000
  38 O1_2_dx   0.00000
  39 O1_2_dy   0.00000
  40 O1_2_dz   0.00000
  41 O1_3_dx   0.00000
  42 O1_3_dy   0.00000
  43 O1_3_dz   0.00000
  44 O1_4_dx   0.00000
  45 O1_4_dz   0.00000
  46 O1_5_dx   0.00000
  47 O1_5_dz   0.00000
  48 O1_6_dx   0.00000
  49 O1_6_dy   0.00000
  50 O1_6_dz   0.00000
  51 O1_7_dx   0.00000
  52 O1_7_dy   0.00000
  53 O1_7_dz   0.00000
  54 O1_8_dx   0.00000
  55 O1_8_dz   0.00000
  56 O1_9_dx   0.00000
  57 O1_9_dy   0.00000
  58 O1_9_dz   0.00000
  59 O1_10_dx   0.00000
  60 O1_10_dz   0.00000
  61 O2_1_dx   0.00000
  62 O2_1_dy   0.00000
  63 O2_1_dz   0.00000
  64 O2_2_dx   0.00000
  65 O2_2_dy   0.00000
  66 O2_2_dz   0.00000
  67 O2_3_dx   0.00000
  68 O2_3_dy   0.00000
  69 O2_3_dz   0.00000
  70 O2_4_dx   0.00000
  71 O2_4_dy   0.00000
  72 O2_4_dz   0.00000
  73 O2_5_dx   0.00000
  74 O2_5_dy   0.00000
  75 O2_5_dz   0.00000
  76 O2_6_dx   0.00000
  77 O2_6_dy   0.00000
  78 O2_6_dz   0.00000
  79 O2_7_dx   0.00000
  80 O2_7_dy   0.00000
  81 O2_7_dz   0.00000
  82 O2_8_dx   0.00000
  83 O2_8_dy   0.00000
  84 O2_8_dz   0.00000
  85 O3_1_dx   0.00000
  86 O3_1_dy   0.00000
  87 O3_1_dz   0.00000
  88 O3_2_dx   0.00000
  89 O3_2_dy   0.00000
  90 O3_2_dz   0.00000
  91 O3_3_dx   0.00000
  92 O3_3_dy   0.00000
  93 O3_3_dz   0.00000
  94 O3_4_dx   0.00000
  95 O3_4_dy   0.00000
  96 O3_4_dz   0.00000
  97 O3_5_dx   0.00000
  98 O3_5_dy   0.00000
  99 O3_5_dz   0.00000
 100 O3_6_dx   0.00000
 101 O3_6_dy   0.00000
 102 O3_6_dz   0.00000
 103 O3_7_dx   0.00000
 104 O3_7_dy   0.00000
 105 O3_7_dz   0.00000
 106 O3_8_dx   0.00000
 107 O3_8_dy   0.00000
 108 O3_8_dz   0.00000
 109 O3_9_dx   0.00000
 110 O3_9_dy   0.00000
 111 O3_9_dz   0.00000
 112 O3_10_dx   0.00000
 113 O3_10_dy   0.00000
 114 O3_10_dz   0.00000
 115 O3_11_dx   0.00000
 116 O3_11_dy   0.00000
 117 O3_11_dz   0.00000
 118 O3_12_dx   0.00000
 119 O3_12_dy   0.00000
 120 O3_12_dz   0.00000
 121 O3_13_dx   0.00000
 122 O3_13_dy   0.00000
 123 O3_13_dz   0.00000
 124 O3_14_dx   0.00000
 125 O3_14_dy   0.00000
 126 O3_14_dz   0.00000
 127 O3_15_dx   0.00000
 128 O3_15_dy   0.00000
 129 O3_15_dz   0.00000
 130 O3_16_dx   0.00000
 131 O3_16_dy   0.00000
 132 O3_16_dz   0.00000
 133 O4_1_dx   0.00000
 134 O4_1_dy   0.00000
 135 O4_1_dz   0.00000
 136 O4_2_dx   0.00000
 137 O4_2_dy   0.00000
 138 O4_2_dz   0.00000
 139 O4_3_dx   0.00000
 140 O4_3_dy   0.00000
 141 O4_3_dz   0.00000
 142 O4_4_dx   0.00000
 143 O4_4_dy   0.00000
 144 O4_4_dz   0.00000
 145 O4_5_dx   0.00000
 146 O4_5_dy   0.00000
 147 O4_5_dz   0.00000
 148 O4_6_dx   0.00000
 149 O4_6_dy   0.00000
 150 O4_6_dz   0.00000
 151 O4_7_dx   0.00000
 152 O4_7_dy   0.00000
 153 O4_7_dz   0.00000
 154 O4_8_dx   0.00000
 155 O4_8_dy   0.00000
 156 O4_8_dz   0.00000

loop_
_iso_coordinate_label
_iso_coordinate_formula
La1_1_x                 "   0.50345 + La1_1_dx"
La1_1_y                 "1/8 + La1_1_dy"
La1_1_z                 "   0.36111 + La1_1_dz"
La1_2_x                 "   0.50345 + La1_2_dx"
La1_2_y                 "1/4 + La1_2_dy"
La1_2_z                 "   0.86111 + La1_2_dz"
La1_3_x                 "   0.50345 + La1_3_dx"
La1_3_y                 "3/8 + La1_3_dy"
La1_3_z                 "   0.36111 + La1_3_dz"
La1_4_x                 "   0.00345 + La1_4_dx"
La1_4_y                 "0 + La1_4_dy"
La1_4_z                 "   0.86111 + La1_4_dz"
La1_5_x                 "   0.50345 + La1_5_dx"
La1_5_y                 "0 + La1_5_dy"
La1_5_z                 "   0.86111 + La1_5_dz"
La1_6_x                 "   0.74655 + La1_6_dx"
La1_6_y                 "1/4 + La1_6_dy"
La1_6_z                 "   0.36111 + La1_6_dz"
La1_7_x                 "   0.74655 + La1_7_dx"
La1_7_y                 "3/8 + La1_7_dy"
La1_7_z                 "   0.86111 + La1_7_dz"
La1_8_x                 "   0.24655 + La1_8_dx"
La1_8_y                 "0 + La1_8_dy"
La1_8_z                 "   0.36111 + La1_8_dz"
La1_9_x                 "   0.74655 + La1_9_dx"
La1_9_y                 "1/8 + La1_9_dy"
La1_9_z                 "   0.86111 + La1_9_dz"
La1_10_x                "   0.74655 + La1_10_dx"
La1_10_y                "0 + La1_10_dy"
La1_10_z                "   0.36111 + La1_10_dz"
Cu1_1_x                 "0 + Cu1_1_dx"
Cu1_1_y                 "3/8 + Cu1_1_dy"
Cu1_1_z                 "0 + Cu1_1_dz"
Cu1_2_x                 "0 + Cu1_2_dx"
Cu1_2_y                 "1/4 + Cu1_2_dy"
Cu1_2_z                 "1/2 + Cu1_2_dz"
Cu1_3_x                 "0 + Cu1_3_dx"
Cu1_3_y                 "1/8 + Cu1_3_dy"
Cu1_3_z                 "0 + Cu1_3_dz"
Cu1_4_x                 "0 + Cu1_4_dx"
Cu1_4_y                 "0 + Cu1_4_dy"
Cu1_4_z                 "1/2 + Cu1_4_dz"
Cu1_5_x                 "0 + Cu1_5_dx"
Cu1_5_y                 "1/2 + Cu1_5_dy"
Cu1_5_z                 "1/2 + Cu1_5_dz"
Cu1_6_x                 "1/4 + Cu1_6_dx"
Cu1_6_y                 "1/4 + Cu1_6_dy"
Cu1_6_z                 "0 + Cu1_6_dz"
Cu1_7_x                 "3/4 + Cu1_7_dx"
Cu1_7_y                 "3/8 + Cu1_7_dy"
Cu1_7_z                 "1/2 + Cu1_7_dz"
Cu1_8_x                 "3/4 + Cu1_8_dx"
Cu1_8_y                 "0 + Cu1_8_dy"
Cu1_8_z                 "0 + Cu1_8_dz"
O1_1_x                  "   0.48220 + O1_1_dx"
O1_1_y                  "1/8 + O1_1_dy"
O1_1_z                  "   0.18307 + O1_1_dz"
O1_2_x                  "   0.48220 + O1_2_dx"
O1_2_y                  "1/4 + O1_2_dy"
O1_2_z                  "   0.68307 + O1_2_dz"
O1_3_x                  "   0.48220 + O1_3_dx"
O1_3_y                  "3/8 + O1_3_dy"
O1_3_z                  "   0.18307 + O1_3_dz"
O1_4_x                  "  -0.01780 + O1_4_dx"
O1_4_y                  "0 + O1_4_dy"
O1_4_z                  "   0.68307 + O1_4_dz"
O1_5_x                  "   0.48220 + O1_5_dx"
O1_5_y                  "0 + O1_5_dy"
O1_5_z                  "   0.68307 + O1_5_dz"
O1_6_x                  "   0.76780 + O1_6_dx"
O1_6_y                  "1/4 + O1_6_dy"
O1_6_z                  "   0.18307 + O1_6_dz"
O1_7_x                  "   0.76780 + O1_7_dx"
O1_7_y                  "3/8 + O1_7_dy"
O1_7_z                  "   0.68307 + O1_7_dz"
O1_8_x                  "   0.26780 + O1_8_dx"
O1_8_y                  "0 + O1_8_dy"
O1_8_z                  "   0.18307 + O1_8_dz"
O1_9_x                  "   0.76780 + O1_9_dx"
O1_9_y                  "1/8 + O1_9_dy"
O1_9_z                  "   0.68307 + O1_9_dz"
O1_10_x                 "   0.76780 + O1_10_dx"
O1_10_y                 "0 + O1_10_dy"
O1_10_z                 "   0.18307 + O1_10_dz"
O2_1_x                  "5/8 + O2_1_dx"
O2_1_y                  "   0.18750 + O2_1_dy"
O2_1_z                  "   0.00697 + O2_1_dz"
O2_2_x                  "5/8 + O2_2_dx"
O2_2_y                  "   0.31250 + O2_2_dy"
O2_2_z                  "   0.50697 + O2_2_dz"
O2_3_x                  "5/8 + O2_3_dx"
O2_3_y                  "   0.43750 + O2_3_dy"
O2_3_z                  "   0.00697 + O2_3_dz"
O2_4_x                  "1/8 + O2_4_dx"
O2_4_y                  "   0.06250 + O2_4_dy"
O2_4_z                  "   0.50697 + O2_4_dz"
O2_5_x                  "1/8 + O2_5_dx"
O2_5_y                  "   0.18750 + O2_5_dy"
O2_5_z                  "   0.00697 + O2_5_dz"
O2_6_x                  "1/8 + O2_6_dx"
O2_6_y                  "   0.31250 + O2_6_dy"
O2_6_z                  "   0.50697 + O2_6_dz"
O2_7_x                  "1/8 + O2_7_dx"
O2_7_y                  "   0.43750 + O2_7_dy"
O2_7_z                  "   0.00697 + O2_7_dz"
O2_8_x                  "5/8 + O2_8_dx"
O2_8_y                  "   0.06250 + O2_8_dy"
O2_8_z                  "   0.50697 + O2_8_dz"
O3_1_x                  "   0.55000 + O3_1_dx"
O3_1_y                  "   0.13250 + O3_1_dy"
O3_1_z                  "   0.18200 + O3_1_dz"
O3_2_x                  "   0.55000 + O3_2_dx"
O3_2_y                  "   0.25750 + O3_2_dy"
O3_2_z                  "   0.68200 + O3_2_dz"
O3_3_x                  "   0.55000 + O3_3_dx"
O3_3_y                  "   0.38250 + O3_3_dy"
O3_3_z                  "   0.18200 + O3_3_dz"
O3_4_x                  "   0.05000 + O3_4_dx"
O3_4_y                  "   0.00750 + O3_4_dy"
O3_4_z                  "   0.68200 + O3_4_dz"
O3_5_x                  "   0.05000 + O3_5_dx"
O3_5_y                  "   0.13250 + O3_5_dy"
O3_5_z                  "   0.18200 + O3_5_dz"
O3_6_x                  "   0.05000 + O3_6_dx"
O3_6_y                  "   0.25750 + O3_6_dy"
O3_6_z                  "   0.68200 + O3_6_dz"
O3_7_x                  "   0.05000 + O3_7_dx"
O3_7_y                  "   0.38250 + O3_7_dy"
O3_7_z                  "   0.18200 + O3_7_dz"
O3_8_x                  "   0.55000 + O3_8_dx"
O3_8_y                  "   0.00750 + O3_8_dy"
O3_8_z                  "   0.68200 + O3_8_dz"
O3_9_x                  "   0.70000 + O3_9_dx"
O3_9_y                  "   0.24250 + O3_9_dy"
O3_9_z                  "   0.18200 + O3_9_dz"
O3_10_x                 "   0.70000 + O3_10_dx"
O3_10_y                 "   0.36750 + O3_10_dy"
O3_10_z                 "   0.68200 + O3_10_dz"
O3_11_x                 "   0.70000 + O3_11_dx"
O3_11_y                 "   0.49250 + O3_11_dy"
O3_11_z                 "   0.18200 + O3_11_dz"
O3_12_x                 "1/5 + O3_12_dx"
O3_12_y                 "   0.11750 + O3_12_dy"
O3_12_z                 "   0.68200 + O3_12_dz"
O3_13_x                 "1/5 + O3_13_dx"
O3_13_y                 "   0.24250 + O3_13_dy"
O3_13_z                 "   0.18200 + O3_13_dz"
O3_14_x                 "1/5 + O3_14_dx"
O3_14_y                 "   0.36750 + O3_14_dy"
O3_14_z                 "   0.68200 + O3_14_dz"
O3_15_x                 "1/5 + O3_15_dx"
O3_15_y                 "   0.49250 + O3_15_dy"
O3_15_z                 "   0.18200 + O3_15_dz"
O3_16_x                 "   0.70000 + O3_16_dx"
O3_16_y                 "   0.11750 + O3_16_dy"
O3_16_z                 "   0.68200 + O3_16_dz"
O4_1_x                  "5/8 + O4_1_dx"
O4_1_y                  "   0.18750 + O4_1_dy"
O4_1_z                  "   0.24300 + O4_1_dz"
O4_2_x                  "5/8 + O4_2_dx"
O4_2_y                  "   0.31250 + O4_2_dy"
O4_2_z                  "   0.74300 + O4_2_dz"
O4_3_x                  "5/8 + O4_3_dx"
O4_3_y                  "   0.43750 + O4_3_dy"
O4_3_z                  "   0.24300 + O4_3_dz"
O4_4_x                  "1/8 + O4_4_dx"
O4_4_y                  "   0.06250 + O4_4_dy"
O4_4_z                  "   0.74300 + O4_4_dz"
O4_5_x                  "1/8 + O4_5_dx"
O4_5_y                  "   0.18750 + O4_5_dy"
O4_5_z                  "   0.24300 + O4_5_dz"
O4_6_x                  "1/8 + O4_6_dx"
O4_6_y                  "   0.31250 + O4_6_dy"
O4_6_z                  "   0.74300 + O4_6_dz"
O4_7_x                  "1/8 + O4_7_dx"
O4_7_y                  "   0.43750 + O4_7_dy"
O4_7_z                  "   0.24300 + O4_7_dz"
O4_8_x                  "5/8 + O4_8_dx"
O4_8_y                  "   0.06250 + O4_8_dy"
O4_8_z                  "   0.74300 + O4_8_dz"

# matrix conversion: deltacoords(lattice units) = matrix.(modeamplitudes*modenormfactors)
# Square matrix with _iso_displacivemode_number rows and columns

loop_
_iso_displacivemodematrix_row
_iso_displacivemodematrix_col
_iso_displacivemodematrix_value
    1    3   0.70711
    1    8   1.00000
    1   10   1.00000
    1   18   1.00000
    1   20   1.00000
    1   23  -0.70711
    2    5   0.70711
    2   13   1.00000
    2   16   1.00000
    2   25   0.70711
    3    1   0.70711
    3    7   1.00000
    3    9   1.00000
    3   17   1.00000
    3   19   1.00000
    3   21  -0.70711
    4    8   1.00000
    4   10   1.00000
    4   12  -1.00000
    4   15   1.00000
    4   18  -1.00000
    4   20  -1.00000
    5    5   1.00000
    5   25  -1.00000
    6    7   1.00000
    6    9   1.00000
    6   11  -1.00000
    6   14   1.00000
    6   17  -1.00000
    6   19  -1.00000
    7    3  -0.70711
    7    8   1.00000
    7   10   1.00000
    7   18   1.00000
    7   20   1.00000
    7   23   0.70711
    8    5   0.70711
    8   13  -1.00000
    8   16  -1.00000
    8   25   0.70711
    9    1  -0.70711
    9    7   1.00000
    9    9   1.00000
    9   17   1.00000
    9   19   1.00000
    9   21   0.70711
   10    3  -1.00000
   10    8   1.00000
   10   10   1.00000
   10   12   1.00000
   10   15  -1.00000
   10   18  -1.00000
   10   20  -1.00000
   10   23  -1.00000
   11    1  -1.00000
   11    7   1.00000
   11    9   1.00000
   11   11   1.00000
   11   14  -1.00000
   11   17  -1.00000
   11   19  -1.00000
   11   21  -1.00000
   12    3   1.00000
   12    8   1.00000
   12   10   1.00000
   12   12   1.00000
   12   15  -1.00000
   12   18  -1.00000
   12   20  -1.00000
   12   23   1.00000
   13    1   1.00000
   13    7   1.00000
   13    9   1.00000
   13   11   1.00000
   13   14  -1.00000
   13   17  -1.00000
   13   19  -1.00000
   13   21   1.00000
   14    8  -1.00000
   14   10   1.00000
   14   12   1.00000
   14   15   1.00000
   14   18  -1.00000
   14   20   1.00000
   15    6   1.00000
   15   26  -1.00000
   16    7   1.00000
   16    9  -1.00000
   16   11  -1.00000
   16   14  -1.00000
   16   17   1.00000
   16   19  -1.00000
   17    4   0.70711
   17    8  -1.00000
   17   10   1.00000
   17   18   1.00000
   17   20  -1.00000
   17   24  -0.70711
   18    6   0.70711
   18   13  -1.00000
   18   16   1.00000
   18   26   0.70711
   19    2  -0.70711
   19    7   1.00000
   19    9  -1.00000
   19   17  -1.00000
   19   19   1.00000
   19   22   0.70711
   20    4   1.00000
   20    8  -1.00000
   20   10   1.00000
   20   12  -1.00000
   20   15  -1.00000
   20   18  -1.00000
   20   20   1.00000
   20   24   1.00000
   21    2  -1.00000
   21    7   1.00000
   21    9  -1.00000
   21   11   1.00000
   21   14   1.00000
   21   17   1.00000
   21   19  -1.00000
   21   22  -1.00000
   22    4  -0.70711
   22    8  -1.00000
   22   10   1.00000
   22   18   1.00000
   22   20  -1.00000
   22   24   0.70711
   23    6   0.70711
   23   13   1.00000
   23   16  -1.00000
   23   26   0.70711
   24    2   0.70711
   24    7   1.00000
   24    9  -1.00000
   24   17  -1.00000
   24   19   1.00000
   24   22  -0.70711
   25    4  -1.00000
   25    8  -1.00000
   25   10   1.00000
   25   12  -1.00000
   25   15  -1.00000
   25   18  -1.00000
   25   20   1.00000
   25   24  -1.00000
   26    2   1.00000
   26    7   1.00000
   26    9  -1.00000
   26   11   1.00000
   26   14   1.00000
   26   17   1.00000
   26   19  -1.00000
   26   22   1.00000
   27   27  -0.70711
   27   30  -1.00000
   27   31  -1.00000
   27   32  -0.70711
   28   27  -1.00000
   28   32   1.00000
   29   27  -0.70711
   29   30   1.00000
   29   31   1.00000
   29   32  -0.70711
   30   29   0.70711
   30   34  -0.70711
   31   30  -1.00000
   31   31   1.00000
   32   28  -0.70711
   32   33   0.70711
   33   29  -1.00000
   33   34  -1.00000
   34   28   1.00000
   34   33   1.00000
   35   37   0.70711
   35   42   1.00000
   35   44   1.00000
   35   52   1.00000
   35   54   1.00000
   35   57  -0.70711
   36   39   0.70711
   36   47   1.00000
   36   50   1.00000
   36   59   0.70711
   37   35   0.70711
   37   41   1.00000
   37   43   1.00000
   37   51   1.00000
   37   53   1.00000
   37   55  -0.70711
   38   42   1.00000
   38   44   1.00000
   38   46  -1.00000
   38   49   1.00000
   38   52  -1.00000
   38   54  -1.00000
   39   39   1.00000
   39   59  -1.00000
   40   41   1.00000
   40   43   1.00000
   40   45  -1.00000
   40   48   1.00000
   40   51  -1.00000
   40   53  -1.00000
   41   37  -0.70711
   41   42   1.00000
   41   44   1.00000
   41   52   1.00000
   41   54   1.00000
   41   57   0.70711
   42   39   0.70711
   42   47  -1.00000
   42   50  -1.00000
   42   59   0.70711
   43   35  -0.70711
   43   41   1.00000
   43   43   1.00000
   43   51   1.00000
   43   53   1.00000
   43   55   0.70711
   44   37  -1.00000
   44   42   1.00000
   44   44   1.00000
   44   46   1.00000
   44   49  -1.00000
   44   52  -1.00000
   44   54  -1.00000
   44   57  -1.00000
   45   35  -1.00000
   45   41   1.00000
   45   43   1.00000
   45   45   1.00000
   45   48  -1.00000
   45   51  -1.00000
   45   53  -1.00000
   45   55  -1.00000
   46   37   1.00000
   46   42   1.00000
   46   44   1.00000
   46   46   1.00000
   46   49  -1.00000
   46   52  -1.00000
   46   54  -1.00000
   46   57   1.00000
   47   35   1.00000
   47   41   1.00000
   47   43   1.00000
   47   45   1.00000
   47   48  -1.00000
   47   51  -1.00000
   47   53  -1.00000
   47   55   1.00000
   48   42  -1.00000
   48   44   1.00000
   48   46   1.00000
   48   49   1.00000
   48   52  -1.00000
   48   54   1.00000
   49   40   1.00000
   49   60  -1.00000
   50   41   1.00000
   50   43  -1.00000
   50   45  -1.00000
   50   48  -1.00000
   50   51   1.00000
   50   53  -1.00000
   51   38   0.70711
   51   42  -1.00000
   51   44   1.00000
   51   52   1.00000
   51   54  -1.00000
   51   58  -0.70711
   52   40   0.70711
   52   47  -1.00000
   52   50   1.00000
   52   60   0.70711
   53   36  -0.70711
   53   41   1.00000
   53   43  -1.00000
   53   51  -1.00000
   53   53   1.00000
   53   56   0.70711
   54   38   1.00000
   54   42  -1.00000
   54   44   1.00000
   54   46  -1.00000
   54   49  -1.00000
   54   52  -1.00000
   54   54   1.00000
   54   58   1.00000
   55   36  -1.00000
   55   41   1.00000
   55   43  -1.00000
   55   45   1.00000
   55   48   1.00000
   55   51   1.00000
   55   53  -1.00000
   55   56  -1.00000
   56   38  -0.70711
   56   42  -1.00000
   56   44   1.00000
   56   52   1.00000
   56   54  -1.00000
   56   58   0.70711
   57   40   0.70711
   57   47   1.00000
   57   50  -1.00000
   57   60   0.70711
   58   36   0.70711
   58   41   1.00000
   58   43  -1.00000
   58   51  -1.00000
   58   53   1.00000
   58   56  -0.70711
   59   38  -1.00000
   59   42  -1.00000
   59   44   1.00000
   59   46  -1.00000
   59   49  -1.00000
   59   52  -1.00000
   59   54   1.00000
   59   58  -1.00000
   60   36   1.00000
   60   41   1.00000
   60   43  -1.00000
   60   45   1.00000
   60   48   1.00000
   60   51   1.00000
   60   53  -1.00000
   60   56   1.00000
   61   65   1.00000
   61   69   1.00000
   61   72   1.00000
   61   75   1.00000
   61   78   1.00000
   61   84  -1.00000
   62   63   1.00000
   62   68   1.00000
   62   71   1.00000
   62   74   1.00000
   62   77   1.00000
   62   82  -1.00000
   63   61   1.00000
   63   67   1.00000
   63   70  -1.00000
   63   73   1.00000
   63   76   1.00000
   63   80   1.00000
   64   65   0.70711
   64   66   0.70711
   64   69   1.00000
   64   72  -1.00000
   64   75   1.00000
   64   78  -1.00000
   64   83  -0.70711
   64   84   0.70711
   65   63   0.70711
   65   64   0.70711
   65   68   1.00000
   65   71  -1.00000
   65   74   1.00000
   65   77  -1.00000
   65   81  -0.70711
   65   82   0.70711
   66   61   0.70711
   66   62  -0.70711
   66   67   1.00000
   66   70  -1.00000
   66   73  -1.00000
   66   76  -1.00000
   66   79  -0.70711
   66   80  -0.70711
   67   66   1.00000
   67   69   1.00000
   67   72  -1.00000
   67   75  -1.00000
   67   78   1.00000
   67   83   1.00000
   68   64   1.00000
   68   68   1.00000
   68   71  -1.00000
   68   74  -1.00000
   68   77   1.00000
   68   81   1.00000
   69   62  -1.00000
   69   67   1.00000
   69   70   1.00000
   69   73  -1.00000
   69   76   1.00000
   69   79   1.00000
   70   65  -0.70711
   70   66   0.70711
   70   69   1.00000
   70   72   1.00000
   70   75  -1.00000
   70   78  -1.00000
   70   83  -0.70711
   70   84  -0.70711
   71   63  -0.70711
   71   64   0.70711
   71   68   1.00000
   71   71   1.00000
   71   74  -1.00000
   71   77  -1.00000
   71   81  -0.70711
   71   82  -0.70711
   72   61  -0.70711
   72   62  -0.70711
   72   67   1.00000
   72   70   1.00000
   72   73   1.00000
   72   76  -1.00000
   72   79  -0.70711
   72   80   0.70711
   73   65  -1.00000
   73   69   1.00000
   73   72   1.00000
   73   75   1.00000
   73   78   1.00000
   73   84   1.00000
   74   63  -1.00000
   74   68   1.00000
   74   71   1.00000
   74   74   1.00000
   74   77   1.00000
   74   82   1.00000
   75   61  -1.00000
   75   67   1.00000
   75   70  -1.00000
   75   73   1.00000
   75   76   1.00000
   75   80  -1.00000
   76   65  -0.70711
   76   66  -0.70711
   76   69   1.00000
   76   72  -1.00000
   76   75   1.00000
   76   78  -1.00000
   76   83   0.70711
   76   84  -0.70711
   77   63  -0.70711
   77   64  -0.70711
   77   68   1.00000
   77   71  -1.00000
   77   74   1.00000
   77   77  -1.00000
   77   81   0.70711
   77   82  -0.70711
   78   61  -0.70711
   78   62   0.70711
   78   67   1.00000
   78   70  -1.00000
   78   73  -1.00000
   78   76  -1.00000
   78   79   0.70711
   78   80   0.70711
   79   66  -1.00000
   79   69   1.00000
   79   72  -1.00000
   79   75  -1.00000
   79   78   1.00000
   79   83  -1.00000
   80   64  -1.00000
   80   68   1.00000
   80   71  -1.00000
   80   74  -1.00000
   80   77   1.00000
   80   81  -1.00000
   81   62   1.00000
   81   67   1.00000
   81   70   1.00000
   81   73  -1.00000
   81   76   1.00000
   81   79  -1.00000
   82   65   0.70711
   82   66  -0.70711
   82   69   1.00000
   82   72   1.00000
   82   75  -1.00000
   82   78  -1.00000
   82   83   0.70711
   82   84   0.70711
   83   63   0.70711
   83   64  -0.70711
   83   68   1.00000
   83   71   1.00000
   83   74  -1.00000
   83   77  -1.00000
   83   81   0.70711
   83   82   0.70711
   84   61   0.70711
   84   62   0.70711
   84   67   1.00000
   84   70   1.00000
   84   73   1.00000
   84   76  -1.00000
   84   79   0.70711
   84   80  -0.70711
   85   93   1.00000
   85   99   1.00000
   85  102   1.00000
   85  108   1.00000
   85  113   1.00000
   85  117   1.00000
   85  120   1.00000
   85  131   1.00000
   86   85   1.00000
   86   97   1.00000
   86  100   1.00000
   86  104   1.00000
   86  109   1.00000
   86  115   1.00000
   86  118   1.00000
   86  123   1.00000
   87   89   1.00000
   87   98   1.00000
   87  101   1.00000
   87  106   1.00000
   87  111   1.00000
   87  116   1.00000
   87  119   1.00000
   87  127   1.00000
   88   93   0.70711
   88   95   0.70711
   88   99   1.00000
   88  102   1.00000
   88  107  -1.00000
   88  114   1.00000
   88  117  -1.00000
   88  120  -1.00000
   88  129  -0.70711
   88  131  -0.70711
   89   85   0.70711
   89   87   0.70711
   89   97   1.00000
   89  100   1.00000
   89  103  -1.00000
   89  110   1.00000
   89  115  -1.00000
   89  118  -1.00000
   89  121  -0.70711
   89  123  -0.70711
   90   89   0.70711
   90   91   0.70711
   90   98   1.00000
   90  101   1.00000
   90  105  -1.00000
   90  112   1.00000
   90  116  -1.00000
   90  119  -1.00000
   90  125  -0.70711
   90  127  -0.70711
   91   95   1.00000
   91   99   1.00000
   91  102   1.00000
   91  108  -1.00000
   91  113  -1.00000
   91  117   1.00000
   91  120   1.00000
   91  129   1.00000
   92   87   1.00000
   92   97   1.00000
   92  100   1.00000
   92  104  -1.00000
   92  109  -1.00000
   92  115   1.00000
   92  118   1.00000
   92  121   1.00000
   93   91   1.00000
   93   98   1.00000
   93  101   1.00000
   93  106  -1.00000
   93  111  -1.00000
   93  116   1.00000
   93  119   1.00000
   93  125   1.00000
   94   93  -0.70711
   94   95   0.70711
   94   99   1.00000
   94  102   1.00000
   94  107   1.00000
   94  114  -1.00000
   94  117  -1.00000
   94  120  -1.00000
   94  129  -0.70711
   94  131   0.70711
   95   85  -0.70711
   95   87   0.70711
   95   97   1.00000
   95  100   1.00000
   95  103   1.00000
   95  110  -1.00000
   95  115  -1.00000
   95  118  -1.00000
   95  121  -0.70711
   95  123   0.70711
   96   89  -0.70711
   96   91   0.70711
   96   98   1.00000
   96  101   1.00000
   96  105   1.00000
   96  112  -1.00000
   96  116  -1.00000
   96  119  -1.00000
   96  125  -0.70711
   96  127   0.70711
   97   93  -1.00000
   97   99   1.00000
   97  102   1.00000
   97  108   1.00000
   97  113   1.00000
   97  117   1.00000
   97  120   1.00000
   97  131  -1.00000
   98   85  -1.00000
   98   97   1.00000
   98  100   1.00000
   98  104   1.00000
   98  109   1.00000
   98  115   1.00000
   98  118   1.00000
   98  123  -1.00000
   99   89  -1.00000
   99   98   1.00000
   99  101   1.00000
   99  106   1.00000
   99  111   1.00000
   99  116   1.00000
   99  119   1.00000
   99  127  -1.00000
  100   93  -0.70711
  100   95  -0.70711
  100   99   1.00000
  100  102   1.00000
  100  107  -1.00000
  100  114   1.00000
  100  117  -1.00000
  100  120  -1.00000
  100  129   0.70711
  100  131   0.70711
  101   85  -0.70711
  101   87  -0.70711
  101   97   1.00000
  101  100   1.00000
  101  103  -1.00000
  101  110   1.00000
  101  115  -1.00000
  101  118  -1.00000
  101  121   0.70711
  101  123   0.70711
  102   89  -0.70711
  102   91  -0.70711
  102   98   1.00000
  102  101   1.00000
  102  105  -1.00000
  102  112   1.00000
  102  116  -1.00000
  102  119  -1.00000
  102  125   0.70711
  102  127   0.70711
  103   95  -1.00000
  103   99   1.00000
  103  102   1.00000
  103  108  -1.00000
  103  113  -1.00000
  103  117   1.00000
  103  120   1.00000
  103  129  -1.00000
  104   87  -1.00000
  104   97   1.00000
  104  100   1.00000
  104  104  -1.00000
  104  109  -1.00000
  104  115   1.00000
  104  118   1.00000
  104  121  -1.00000
  105   91  -1.00000
  105   98   1.00000
  105  101   1.00000
  105  106  -1.00000
  105  111  -1.00000
  105  116   1.00000
  105  119   1.00000
  105  125  -1.00000
  106   93   0.70711
  106   95  -0.70711
  106   99   1.00000
  106  102   1.00000
  106  107   1.00000
  106  114  -1.00000
  106  117  -1.00000
  106  120  -1.00000
  106  129   0.70711
  106  131  -0.70711
  107   85   0.70711
  107   87  -0.70711
  107   97   1.00000
  107  100   1.00000
  107  103   1.00000
  107  110  -1.00000
  107  115  -1.00000
  107  118  -1.00000
  107  121   0.70711
  107  123  -0.70711
  108   89   0.70711
  108   91  -0.70711
  108   98   1.00000
  108  101   1.00000
  108  105   1.00000
  108  112  -1.00000
  108  116  -1.00000
  108  119  -1.00000
  108  125   0.70711
  108  127  -0.70711
  109   94   0.70711
  109   96   0.70711
  109   99  -1.00000
  109  102   1.00000
  109  107   1.00000
  109  114   1.00000
  109  117  -1.00000
  109  120   1.00000
  109  130  -0.70711
  109  132  -0.70711
  110   86   0.70711
  110   88   0.70711
  110   97  -1.00000
  110  100   1.00000
  110  103   1.00000
  110  110   1.00000
  110  115  -1.00000
  110  118   1.00000
  110  122  -0.70711
  110  124  -0.70711
  111   90  -0.70711
  111   92  -0.70711
  111   98   1.00000
  111  101  -1.00000
  111  105  -1.00000
  111  112  -1.00000
  111  116   1.00000
  111  119  -1.00000
  111  126   0.70711
  111  128   0.70711
  112   94   1.00000
  112   99  -1.00000
  112  102   1.00000
  112  108  -1.00000
  112  113   1.00000
  112  117   1.00000
  112  120  -1.00000
  112  132   1.00000
  113   86   1.00000
  113   97  -1.00000
  113  100   1.00000
  113  104  -1.00000
  113  109   1.00000
  113  115   1.00000
  113  118  -1.00000
  113  124   1.00000
  114   90  -1.00000
  114   98   1.00000
  114  101  -1.00000
  114  106   1.00000
  114  111  -1.00000
  114  116  -1.00000
  114  119   1.00000
  114  128  -1.00000
  115   94   0.70711
  115   96  -0.70711
  115   99  -1.00000
  115  102   1.00000
  115  107  -1.00000
  115  114  -1.00000
  115  117  -1.00000
  115  120   1.00000
  115  130   0.70711
  115  132  -0.70711
  116   86   0.70711
  116   88  -0.70711
  116   97  -1.00000
  116  100   1.00000
  116  103  -1.00000
  116  110  -1.00000
  116  115  -1.00000
  116  118   1.00000
  116  122   0.70711
  116  124  -0.70711
  117   90  -0.70711
  117   92   0.70711
  117   98   1.00000
  117  101  -1.00000
  117  105   1.00000
  117  112   1.00000
  117  116   1.00000
  117  119  -1.00000
  117  126  -0.70711
  117  128   0.70711
  118   96  -1.00000
  118   99  -1.00000
  118  102   1.00000
  118  108   1.00000
  118  113  -1.00000
  118  117   1.00000
  118  120  -1.00000
  118  130  -1.00000
  119   88  -1.00000
  119   97  -1.00000
  119  100   1.00000
  119  104   1.00000
  119  109  -1.00000
  119  115   1.00000
  119  118  -1.00000
  119  122  -1.00000
  120   92   1.00000
  120   98   1.00000
  120  101  -1.00000
  120  106  -1.00000
  120  111   1.00000
  120  116  -1.00000
  120  119   1.00000
  120  126   1.00000
  121   94  -0.70711
  121   96  -0.70711
  121   99  -1.00000
  121  102   1.00000
  121  107   1.00000
  121  114   1.00000
  121  117  -1.00000
  121  120   1.00000
  121  130   0.70711
  121  132   0.70711
  122   86  -0.70711
  122   88  -0.70711
  122   97  -1.00000
  122  100   1.00000
  122  103   1.00000
  122  110   1.00000
  122  115  -1.00000
  122  118   1.00000
  122  122   0.70711
  122  124   0.70711
  123   90   0.70711
  123   92   0.70711
  123   98   1.00000
  123  101  -1.00000
  123  105  -1.00000
  123  112  -1.00000
  123  116   1.00000
  123  119  -1.00000
  123  126  -0.70711
  123  128  -0.70711
  124   94  -1.00000
  124   99  -1.00000
  124  102   1.00000
  124  108  -1.00000
  124  113   1.00000
  124  117   1.00000
  124  120  -1.00000
  124  132  -1.00000
  125   86  -1.00000
  125   97  -1.00000
  125  100   1.00000
  125  104  -1.00000
  125  109   1.00000
  125  115   1.00000
  125  118  -1.00000
  125  124  -1.00000
  126   90   1.00000
  126   98   1.00000
  126  101  -1.00000
  126  106   1.00000
  126  111  -1.00000
  126  116  -1.00000
  126  119   1.00000
  126  128   1.00000
  127   94  -0.70711
  127   96   0.70711
  127   99  -1.00000
  127  102   1.00000
  127  107  -1.00000
  127  114  -1.00000
  127  117  -1.00000
  127  120   1.00000
  127  130  -0.70711
  127  132   0.70711
  128   86  -0.70711
  128   88   0.70711
  128   97  -1.00000
  128  100   1.00000
  128  103  -1.00000
  128  110  -1.00000
  128  115  -1.00000
  128  118   1.00000
  128  122  -0.70711
  128  124   0.70711
  129   90   0.70711
  129   92  -0.70711
  129   98   1.00000
  129  101  -1.00000
  129  105   1.00000
  129  112   1.00000
  129  116   1.00000
  129  119  -1.00000
  129  126   0.70711
  129  128  -0.70711
  130   96   1.00000
  130   99  -1.00000
  130  102   1.00000
  130  108   1.00000
  130  113  -1.00000
  130  117   1.00000
  130  120  -1.00000
  130  130   1.00000
  131   88   1.00000
  131   97  -1.00000
  131  100   1.00000
  131  104   1.00000
  131  109  -1.00000
  131  115   1.00000
  131  118  -1.00000
  131  122   1.00000
  132   92  -1.00000
  132   98   1.00000
  132  101  -1.00000
  132  106  -1.00000
  132  111   1.00000
  132  116  -1.00000
  132  119   1.00000
  132  126  -1.00000
  133  137   1.00000
  133  141   1.00000
  133  144   1.00000
  133  147   1.00000
  133  150   1.00000
  133  156  -1.00000
  134  135   1.00000
  134  140   1.00000
  134  143   1.00000
  134  146   1.00000
  134  149   1.00000
  134  154  -1.00000
  135  133   1.00000
  135  139   1.00000
  135  142  -1.00000
  135  145   1.00000
  135  148   1.00000
  135  152   1.00000
  136  137   0.70711
  136  138   0.70711
  136  141   1.00000
  136  144  -1.00000
  136  147   1.00000
  136  150  -1.00000
  136  155  -0.70711
  136  156   0.70711
  137  135   0.70711
  137  136   0.70711
  137  140   1.00000
  137  143  -1.00000
  137  146   1.00000
  137  149  -1.00000
  137  153  -0.70711
  137  154   0.70711
  138  133   0.70711
  138  134  -0.70711
  138  139   1.00000
  138  142  -1.00000
  138  145  -1.00000
  138  148  -1.00000
  138  151  -0.70711
  138  152  -0.70711
  139  138   1.00000
  139  141   1.00000
  139  144  -1.00000
  139  147  -1.00000
  139  150   1.00000
  139  155   1.00000
  140  136   1.00000
  140  140   1.00000
  140  143  -1.00000
  140  146  -1.00000
  140  149   1.00000
  140  153   1.00000
  141  134  -1.00000
  141  139   1.00000
  141  142   1.00000
  141  145  -1.00000
  141  148   1.00000
  141  151   1.00000
  142  137  -0.70711
  142  138   0.70711
  142  141   1.00000
  142  144   1.00000
  142  147  -1.00000
  142  150  -1.00000
  142  155  -0.70711
  142  156  -0.70711
  143  135  -0.70711
  143  136   0.70711
  143  140   1.00000
  143  143   1.00000
  143  146  -1.00000
  143  149  -1.00000
  143  153  -0.70711
  143  154  -0.70711
  144  133  -0.70711
  144  134  -0.70711
  144  139   1.00000
  144  142   1.00000
  144  145   1.00000
  144  148  -1.00000
  144  151  -0.70711
  144  152   0.70711
  145  137  -1.00000
  145  141   1.00000
  145  144   1.00000
  145  147   1.00000
  145  150   1.00000
  145  156   1.00000
  146  135  -1.00000
  146  140   1.00000
  146  143   1.00000
  146  146   1.00000
  146  149   1.00000
  146  154   1.00000
  147  133  -1.00000
  147  139   1.00000
  147  142  -1.00000
  147  145   1.00000
  147  148   1.00000
  147  152  -1.00000
  148  137  -0.70711
  148  138  -0.70711
  148  141   1.00000
  148  144  -1.00000
  148  147   1.00000
  148  150  -1.00000
  148  155   0.70711
  148  156  -0.70711
  149  135  -0.70711
  149  136  -0.70711
  149  140   1.00000
  149  143  -1.00000
  149  146   1.00000
  149  149  -1.00000
  149  153   0.70711
  149  154  -0.70711
  150  133  -0.70711
  150  134   0.70711
  150  139   1.00000
  150  142  -1.00000
  150  145  -1.00000
  150  148  -1.00000
  150  151   0.70711
  150  152   0.70711
  151  138  -1.00000
  151  141   1.00000
  151  144  -1.00000
  151  147  -1.00000
  151  150   1.00000
  151  155  -1.00000
  152  136  -1.00000
  152  140   1.00000
  152  143  -1.00000
  152  146  -1.00000
  152  149   1.00000
  152  153  -1.00000
  153  134   1.00000
  153  139   1.00000
  153  142   1.00000
  153  145  -1.00000
  153  148   1.00000
  153  151  -1.00000
  154  137   0.70711
  154  138  -0.70711
  154  141   1.00000
  154  144   1.00000
  154  147  -1.00000
  154  150  -1.00000
  154  155   0.70711
  154  156   0.70711
  155  135   0.70711
  155  136  -0.70711
  155  140   1.00000
  155  143   1.00000
  155  146  -1.00000
  155  149  -1.00000
  155  153   0.70711
  155  154   0.70711
  156  133   0.70711
  156  134   0.70711
  156  139   1.00000
  156  142   1.00000
  156  145   1.00000
  156  148  -1.00000
  156  151   0.70711
  156  152  -0.70711

_iso_magneticmode_number    0


_iso_rotationalmode_number    0


_iso_occupancymode_number    0

_iso_strainmode_number    4

loop_
_iso_strainmode_ID
_iso_strainmode_label
_iso_strainmode_value
   1 Cmca[0,0,0]GM1+(a)strain_1(a)  0.00000
   2 Cmca[0,0,0]GM1+(a)strain_2(a)  0.00000
   3 Cmca[0,0,0]GM1+(a)strain_3(a)  0.00000
   4 Cmca[0,0,0]GM3+(a)strain(a)  0.00000

loop_
_iso_strainmodenorm_ID
_iso_strainmodenorm_value
   1  1.00000
   2  1.00000
   3  1.00000
   4  1.41421

loop_
_iso_strain_ID
_iso_strain_label
_iso_strain_value
   1 E_1   0.00000
   2 E_2   0.00000
   3 E_3   0.00000
   4 E_4   0.00000
   5 E_5   0.00000
   6 E_6   0.00000

# matrix conversion: strains(parent) = matrix * modeamplitudes
# Rectangular matrix with 6 rows and _iso_strainmode_number columns

loop_
_iso_strainmodematrix_row
_iso_strainmodematrix_col
_iso_strainmodematrix_value
    1    1   1.00000
    2    2   1.00000
    3    3   1.00000
    4    4   1.00000

_iso_parentcell_length_a     5.35000
_iso_parentcell_length_b     13.14800
_iso_parentcell_length_c     5.39800
_iso_parentcell_angle_alpha  90.00000
_iso_parentcell_angle_beta   90.00000
_iso_parentcell_angle_gamma  90.00000
_iso_parentcell_volume       379.70504
_iso_parent-to-child.transform_Pp_abc 2c,4a,b;-1/2,0,-1

# end of structure file
# end of cif
